CAND_35c4ee0b09
     RDKit          3D

 68 74  0  0  0  0  0  0  0  0999 V2000
   -7.9576   -1.4517   -1.0615 N   0  0  0  0  0  0  0  0  0  0  0  0
   -6.6780   -1.8529   -0.8047 C   0  0  0  0  0  0  0  0  0  0  0  0
   -6.3125   -2.9893   -1.0900 O   0  0  0  0  0  0  0  0  0  0  0  0
   -5.7470   -0.9022   -0.1640 C   0  0  0  0  0  0  0  0  0  0  0  0
   -5.9803    0.4579    0.0080 C   0  0  0  0  0  0  0  0  0  0  0  0
   -5.0920    1.3564    0.5148 N   0  0  0  0  0  0  0  0  0  0  0  0
   -3.8714    0.9294    0.9161 C   0  0  0  0  0  0  0  0  0  0  0  0
   -3.6106   -0.4593    0.9275 C   0  0  0  0  0  0  0  0  0  0  0  0
   -4.5013   -1.3286    0.3038 C   0  0  0  0  0  0  0  0  0  0  0  0
   -3.8715   -2.5569    0.2208 N   0  0  0  0  0  0  0  0  0  0  0  0
   -2.5968   -2.4777    0.7336 C   0  0  0  0  0  0  0  0  0  0  0  0
   -1.4871   -3.3295    0.6196 C   0  0  0  0  0  0  0  0  0  0  0  0
   -0.2722   -2.8723    1.1757 C   0  0  0  0  0  0  0  0  0  0  0  0
   -0.2946   -1.7967    2.0828 C   0  0  0  0  0  0  0  0  0  0  0  0
   -1.4081   -0.9756    2.1927 C   0  0  0  0  0  0  0  0  0  0  0  0
   -2.5200   -1.2527    1.3883 C   0  0  0  0  0  0  0  0  0  0  0  0
    1.0437   -3.2016    0.5837 C   0  0  0  0  0  0  0  0  0  0  0  0
    1.1899   -3.1092   -0.7948 C   0  0  0  0  0  0  0  0  0  0  0  0
    2.3534   -2.5358   -1.2931 C   0  0  0  0  0  0  0  0  0  0  0  0
    3.3376   -2.1147   -0.4125 C   0  0  0  0  0  0  0  0  0  0  0  0
    3.2704   -2.4894    0.8812 N   0  0  0  0  0  0  0  0  0  0  0  0
    2.1177   -3.0323    1.3883 N   0  0  0  0  0  0  0  0  0  0  0  0
    4.3169   -1.2176   -0.8148 N   0  0  0  0  0  0  0  0  0  0  0  0
    5.6609   -1.4130   -0.2671 C   0  0  0  0  0  0  0  0  0  0  0  0
    6.1978   -0.1560    0.3681 C   0  0  0  0  0  0  0  0  0  0  0  0
    6.3472    1.1122   -0.8669 S   0  0  0  0  0  0  0  0  0  0  0  0
    5.9396    2.3696   -0.2673 O   0  0  0  0  0  0  0  0  0  0  0  0
    7.6550    0.9834   -1.4822 O   0  0  0  0  0  0  0  0  0  0  0  0
    5.1397    0.6927   -2.1021 C   0  0  0  0  0  0  0  0  0  0  0  0
    3.9067    0.0443   -1.4779 C   0  0  0  0  0  0  0  0  0  0  0  0
    3.1544    1.0560   -0.5498 C   0  0  0  0  0  0  0  0  0  0  0  0
    1.3422    0.7836   -0.3364 S   0  0  0  0  0  0  0  0  0  0  0  0
    0.8509    2.4555    0.1699 C   0  0  0  0  0  0  0  0  0  0  0  0
   -0.4834    2.5565    0.9185 C   0  0  0  0  0  0  0  0  0  0  0  0
   -0.4069    2.6118    2.4423 C   0  0  0  0  0  0  0  0  0  0  0  0
   -0.6870    3.8671    1.6737 C   0  0  0  0  0  0  0  0  0  0  0  0
   -1.7280    1.9115    0.2293 C   0  0  2  0  0  0  0  0  0  0  0  0
   -2.0613    2.5972   -1.1329 C   0  0  0  0  0  0  0  0  0  0  0  0
   -2.4465    3.8849   -0.9539 F   0  0  0  0  0  0  0  0  0  0  0  0
   -1.0026    2.6106   -1.9765 F   0  0  0  0  0  0  0  0  0  0  0  0
   -3.0619    1.9626   -1.7888 F   0  0  0  0  0  0  0  0  0  0  0  0
   -2.9120    1.9115    1.1573 N   0  0  0  0  0  0  0  0  0  0  0  0
   -8.5698   -2.1303   -1.4983 H   0  0  0  0  0  0  0  0  0  0  0  0
   -8.3558   -0.5581   -0.8168 H   0  0  0  0  0  0  0  0  0  0  0  0
   -6.9101    0.9184   -0.3096 H   0  0  0  0  0  0  0  0  0  0  0  0
   -4.2677   -3.3494   -0.2726 H   0  0  0  0  0  0  0  0  0  0  0  0
   -1.5229   -4.1983   -0.0303 H   0  0  0  0  0  0  0  0  0  0  0  0
    0.6229   -1.4637    2.5689 H   0  0  0  0  0  0  0  0  0  0  0  0
   -1.3535   -0.0623    2.7735 H   0  0  0  0  0  0  0  0  0  0  0  0
    0.3486   -3.2461   -1.4662 H   0  0  0  0  0  0  0  0  0  0  0  0
    2.4226   -2.3134   -2.3518 H   0  0  0  0  0  0  0  0  0  0  0  0
    5.6942   -2.2215    0.4734 H   0  0  0  0  0  0  0  0  0  0  0  0
    6.3187   -1.7354   -1.0843 H   0  0  0  0  0  0  0  0  0  0  0  0
    7.1929   -0.3192    0.7925 H   0  0  0  0  0  0  0  0  0  0  0  0
    5.5392    0.2075    1.1614 H   0  0  0  0  0  0  0  0  0  0  0  0
    4.8898    1.6091   -2.6462 H   0  0  0  0  0  0  0  0  0  0  0  0
    5.6219    0.0037   -2.8049 H   0  0  0  0  0  0  0  0  0  0  0  0
    3.2486   -0.1883   -2.3250 H   0  0  0  0  0  0  0  0  0  0  0  0
    3.5867    1.0709    0.4537 H   0  0  0  0  0  0  0  0  0  0  0  0
    3.2522    2.0584   -0.9808 H   0  0  0  0  0  0  0  0  0  0  0  0
    0.8278    3.0991   -0.7146 H   0  0  0  0  0  0  0  0  0  0  0  0
    1.6486    2.8477    0.8124 H   0  0  0  0  0  0  0  0  0  0  0  0
   -1.2157    2.2134    3.0445 H   0  0  0  0  0  0  0  0  0  0  0  0
    0.5618    2.5070    2.9199 H   0  0  0  0  0  0  0  0  0  0  0  0
   -1.6804    4.2953    1.7497 H   0  0  0  0  0  0  0  0  0  0  0  0
    0.0928    4.6217    1.6409 H   0  0  0  0  0  0  0  0  0  0  0  0
   -1.4579    0.8786   -0.0018 H   0  0  0  0  0  0  0  0  0  0  0  0
   -3.3690    2.8156    1.2427 H   0  0  0  0  0  0  0  0  0  0  0  0
  1  2  1  0
  2  3  2  0
  2  4  1  0
  4  5  2  0
  5  6  1  0
  6  7  2  0
  7  8  1  0
  8  9  2  0
  9 10  1  0
 10 11  1  0
 11 12  2  0
 12 13  1  0
 13 14  2  0
 14 15  1  0
 15 16  2  0
 13 17  1  0
 17 18  2  0
 18 19  1  0
 19 20  2  0
 20 21  1  0
 21 22  2  0
 20 23  1  0
 23 24  1  0
 24 25  1  0
 25 26  1  0
 26 27  2  0
 26 28  2  0
 26 29  1  0
 29 30  1  0
 30 31  1  0
 31 32  1  0
 32 33  1  0
 33 34  1  0
 34 35  1  0
 35 36  1  0
 34 37  1  0
 37 38  1  0
 38 39  1  0
 38 40  1  0
 38 41  1  0
 37 42  1  0
  9  4  1  0
 16 11  1  0
 22 17  1  0
 30 23  1  0
 36 34  1  0
 42  7  1  0
 16  8  1  0
  1 43  1  0
  1 44  1  0
  5 45  1  0
 10 46  1  0
 12 47  1  0
 14 48  1  0
 15 49  1  0
 18 50  1  0
 19 51  1  0
 24 52  1  0
 24 53  1  0
 25 54  1  0
 25 55  1  0
 29 56  1  0
 29 57  1  0
 30 58  1  0
 31 59  1  0
 31 60  1  0
 33 61  1  0
 33 62  1  0
 35 63  1  0
 35 64  1  0
 36 65  1  0
 36 66  1  0
 37 67  1  6
 42 68  1  0
M  END
>  <candidate_id>  (1) 
CAND_35c4ee0b09

>  <source_generator>  (1) 
v5_3_model_guided_macrocycle

>  <parent_mol_id>  (1) 
JAK2_b8536fbab5

>  <canonical_smiles>  (1) 
NC(=O)c1cnc2c3c1[nH]c1cc(ccc13)-c1ccc(nn1)N1CCS(=O)(=O)CC1CSCC1(CC1)[C@H](C(F)(F)F)N2

>  <inchikey>  (1) 
IZZXRBQLSMOBFN-FFMAFDDDSA-N

>  <valid_rdkit>  (1) 
True

>  <unique_flag>  (1) 
True

>  <novel_flag>  (1) 
True

>  <mw>  (1) 
617.679

>  <logp>  (1) 
3.7452

>  <tpsa>  (1) 
146.96

>  <hbd>  (1) 
3

>  <hba>  (1) 
9

>  <rotatable_bonds>  (1) 
1

>  <qed>  (1) 
0.2907

>  <sa_score>  (1) 
5.512

>  <murcko_scaffold>  (1) 
O=S1(=O)CCN2c3ccc(nn3)-c3ccc4c(c3)[nH]c3ccnc(c34)NCC3(CC3)CSCC2C1

>  <max_ring_size>  (1) 
18

>  <has_macrocycle_12_20>  (1) 
True

>  <has_constrained_ring_8_11>  (1) 
False

>  <passes_basic_filters>  (1) 
True

>  <generation_notes>  (1) 
v5_3_model_guided_anchor_pair=9-27;anchor_scores=0.691,0.079;linker_length=3;target_ring=17;linker_prob=0.683;chemotype=thioether

$$$$
