CAND_94f502517a
     RDKit          3D

 64 69  0  0  0  0  0  0  0  0999 V2000
    2.9080   -0.5505   -0.2356 O   0  0  0  0  0  0  0  0  0  0  0  0
    3.7470   -0.3100    0.6210 C   0  0  0  0  0  0  0  0  0  0  0  0
    4.4261   -1.2406    1.3592 N   0  0  0  0  0  0  0  0  0  0  0  0
    4.0906   -2.5564    1.6554 C   0  0  0  0  0  0  0  0  0  0  0  0
    5.0175   -3.3146    2.3476 C   0  0  0  0  0  0  0  0  0  0  0  0
    4.4286   -4.5060    2.6228 N   0  0  0  0  0  0  0  0  0  0  0  0
    3.1774   -4.5878    2.1864 N   0  0  0  0  0  0  0  0  0  0  0  0
    2.9485   -3.4253    1.5462 C   0  0  0  0  0  0  0  0  0  0  0  0
    1.5181   -3.2497    0.8890 C   0  0  0  0  0  0  0  0  0  0  0  0
    0.4839   -4.0397    1.1408 N   0  0  0  0  0  0  0  0  0  0  0  0
   -0.5809   -3.4937    0.4678 C   0  0  0  0  0  0  0  0  0  0  0  0
   -1.9364   -3.8481    0.4690 C   0  0  0  0  0  0  0  0  0  0  0  0
   -2.8345   -3.0733   -0.2839 C   0  0  0  0  0  0  0  0  0  0  0  0
   -2.3931   -1.9973   -1.0752 C   0  0  0  0  0  0  0  0  0  0  0  0
   -1.0233   -1.6808   -1.1228 C   0  0  0  0  0  0  0  0  0  0  0  0
   -0.1718   -2.4178   -0.3014 C   0  0  0  0  0  0  0  0  0  0  0  0
    1.1587   -2.2931   -0.0153 N   0  0  0  0  0  0  0  0  0  0  0  0
   -3.3979   -1.1432   -1.8312 C   0  0  0  0  0  0  0  0  0  0  0  0
   -3.9251   -0.0361   -1.0082 N   0  0  0  0  0  0  0  0  0  0  0  0
   -5.2027    0.4762   -1.5466 C   0  0  0  0  0  0  0  0  0  0  0  0
   -5.0505    1.3439   -2.8031 C   0  0  0  0  0  0  0  0  0  0  0  0
   -4.1785    2.4504   -2.5560 O   0  0  0  0  0  0  0  0  0  0  0  0
   -2.8839    1.9908   -2.1437 C   0  0  0  0  0  0  0  0  0  0  0  0
   -2.9505    1.0884   -0.8843 C   0  0  0  0  0  0  0  0  0  0  0  0
   -3.2334    1.9353    0.3905 C   0  0  0  0  0  0  0  0  0  0  0  0
   -2.0270    2.6602    0.8254 N   0  0  0  0  0  0  0  0  0  0  0  0
   -1.2143    1.8356    1.7104 C   0  0  0  0  0  0  0  0  0  0  0  0
    0.0476    2.4601    1.9091 O   0  0  0  0  0  0  0  0  0  0  0  0
    1.0459    1.9227    1.0355 C   0  0  0  0  0  0  0  0  0  0  0  0
    2.3359    2.7175    1.2186 C   0  0  0  0  0  0  0  0  0  0  0  0
    3.5025    2.1649    0.4110 C   0  0  0  0  0  0  0  0  0  0  0  0
    4.4454    3.1859   -0.2022 C   0  0  0  0  0  0  0  0  0  0  0  0
    3.5173    2.4098   -1.0828 C   0  0  0  0  0  0  0  0  0  0  0  0
    4.1163    0.9777    0.9615 N   0  0  0  0  0  0  0  0  0  0  0  0
    5.3209   -0.9386    1.7158 H   0  0  0  0  0  0  0  0  0  0  0  0
    6.0231   -3.1082    2.6837 H   0  0  0  0  0  0  0  0  0  0  0  0
    4.8117   -5.3018    3.1231 H   0  0  0  0  0  0  0  0  0  0  0  0
   -2.2799   -4.6794    1.0739 H   0  0  0  0  0  0  0  0  0  0  0  0
   -3.8950   -3.3136   -0.2389 H   0  0  0  0  0  0  0  0  0  0  0  0
   -0.6451   -0.8596   -1.7221 H   0  0  0  0  0  0  0  0  0  0  0  0
    1.7790   -1.5905   -0.3938 H   0  0  0  0  0  0  0  0  0  0  0  0
   -2.9559   -0.7918   -2.7716 H   0  0  0  0  0  0  0  0  0  0  0  0
   -4.2180   -1.8111   -2.1283 H   0  0  0  0  0  0  0  0  0  0  0  0
   -5.8980   -0.3490   -1.7407 H   0  0  0  0  0  0  0  0  0  0  0  0
   -5.6740    1.0815   -0.7620 H   0  0  0  0  0  0  0  0  0  0  0  0
   -6.0255    1.7513   -3.0890 H   0  0  0  0  0  0  0  0  0  0  0  0
   -4.6733    0.7648   -3.6538 H   0  0  0  0  0  0  0  0  0  0  0  0
   -2.4229    1.4558   -2.9826 H   0  0  0  0  0  0  0  0  0  0  0  0
   -2.2661    2.8753   -1.9571 H   0  0  0  0  0  0  0  0  0  0  0  0
   -1.9509    0.6752   -0.7436 H   0  0  0  0  0  0  0  0  0  0  0  0
   -3.6124    1.3075    1.2075 H   0  0  0  0  0  0  0  0  0  0  0  0
   -4.0201    2.6688    0.1766 H   0  0  0  0  0  0  0  0  0  0  0  0
   -2.2943    3.4859    1.3585 H   0  0  0  0  0  0  0  0  0  0  0  0
   -1.0853    0.8098    1.3443 H   0  0  0  0  0  0  0  0  0  0  0  0
   -1.6990    1.7693    2.6910 H   0  0  0  0  0  0  0  0  0  0  0  0
    1.2042    0.8708    1.2947 H   0  0  0  0  0  0  0  0  0  0  0  0
    0.7075    1.9823   -0.0056 H   0  0  0  0  0  0  0  0  0  0  0  0
    2.1387    3.7646    0.9531 H   0  0  0  0  0  0  0  0  0  0  0  0
    2.6078    2.7390    2.2820 H   0  0  0  0  0  0  0  0  0  0  0  0
    4.2415    4.2416   -0.0609 H   0  0  0  0  0  0  0  0  0  0  0  0
    5.5024    2.9527   -0.2630 H   0  0  0  0  0  0  0  0  0  0  0  0
    3.9408    1.6464   -1.7261 H   0  0  0  0  0  0  0  0  0  0  0  0
    2.6813    2.9360   -1.5303 H   0  0  0  0  0  0  0  0  0  0  0  0
    4.7450    1.1099    1.7415 H   0  0  0  0  0  0  0  0  0  0  0  0
  1  2  2  0
  2  3  1  0
  3  4  1  0
  4  5  2  0
  5  6  1  0
  6  7  1  0
  7  8  2  0
  8  9  1  0
  9 10  2  0
 10 11  1  0
 11 12  2  0
 12 13  1  0
 13 14  2  0
 14 15  1  0
 15 16  2  0
 16 17  1  0
 14 18  1  0
 18 19  1  0
 19 20  1  0
 20 21  1  0
 21 22  1  0
 22 23  1  0
 23 24  1  0
 24 25  1  0
 25 26  1  0
 26 27  1  0
 27 28  1  0
 28 29  1  0
 29 30  1  0
 30 31  1  0
 31 32  1  0
 32 33  1  0
 31 34  1  0
 34  2  1  0
  8  4  1  0
 17  9  1  0
 24 19  1  0
 33 31  1  0
 16 11  1  0
  3 35  1  0
  5 36  1  0
  6 37  1  0
 12 38  1  0
 13 39  1  0
 15 40  1  0
 17 41  1  0
 18 42  1  0
 18 43  1  0
 20 44  1  0
 20 45  1  0
 21 46  1  0
 21 47  1  0
 23 48  1  0
 23 49  1  0
 24 50  1  0
 25 51  1  0
 25 52  1  0
 26 53  1  0
 27 54  1  0
 27 55  1  0
 29 56  1  0
 29 57  1  0
 30 58  1  0
 30 59  1  0
 32 60  1  0
 32 61  1  0
 33 62  1  0
 33 63  1  0
 34 64  1  0
M  END
>  <candidate_id>  (1) 
CAND_94f502517a

>  <source_generator>  (1) 
v5_3_model_guided_macrocycle

>  <parent_mol_id>  (1) 
JAK2_dbe7510318

>  <canonical_smiles>  (1) 
O=C1Nc2c[nH]nc2-c2nc3ccc(cc3[nH]2)CN2CCOCC2CNCOCCC2(CC2)N1

>  <inchikey>  (1) 
YCUVWDZLVPZCAW-UHFFFAOYSA-N

>  <valid_rdkit>  (1) 
True

>  <unique_flag>  (1) 
True

>  <novel_flag>  (1) 
True

>  <mw>  (1) 
466.546

>  <logp>  (1) 
1.7753

>  <tpsa>  (1) 
132.22

>  <hbd>  (1) 
5

>  <hba>  (1) 
7

>  <rotatable_bonds>  (1) 
0

>  <qed>  (1) 
0.3411

>  <sa_score>  (1) 
4.297

>  <murcko_scaffold>  (1) 
O=C1Nc2c[nH]nc2-c2nc3ccc(cc3[nH]2)CN2CCOCC2CNCOCCC2(CC2)N1

>  <max_ring_size>  (1) 
20

>  <has_macrocycle_12_20>  (1) 
True

>  <has_constrained_ring_8_11>  (1) 
False

>  <passes_basic_filters>  (1) 
True

>  <generation_notes>  (1) 
v5_3_model_guided_anchor_pair=25-16;anchor_scores=0.691,0.079;linker_length=6;target_ring=19;linker_prob=0.167;chemotype=oxa_aza

$$$$
