CAND_2f2a0d40fd
     RDKit          3D

 68 74  0  0  0  0  0  0  0  0999 V2000
    7.7323    0.9275   -1.7500 N   0  0  0  0  0  0  0  0  0  0  0  0
    6.5235    1.4370   -1.3717 C   0  0  0  0  0  0  0  0  0  0  0  0
    6.2284    2.5996   -1.6319 O   0  0  0  0  0  0  0  0  0  0  0  0
    5.5835    0.5712   -0.6312 C   0  0  0  0  0  0  0  0  0  0  0  0
    5.7182   -0.8009   -0.4641 C   0  0  0  0  0  0  0  0  0  0  0  0
    4.8070   -1.6158    0.1324 N   0  0  0  0  0  0  0  0  0  0  0  0
    3.6690   -1.0878    0.6447 C   0  0  0  0  0  0  0  0  0  0  0  0
    3.5269    0.3185    0.6658 C   0  0  0  0  0  0  0  0  0  0  0  0
    4.4258    1.1016   -0.0561 C   0  0  0  0  0  0  0  0  0  0  0  0
    3.8927    2.3757   -0.1130 N   0  0  0  0  0  0  0  0  0  0  0  0
    2.6562    2.3985    0.4882 C   0  0  0  0  0  0  0  0  0  0  0  0
    1.5930    3.3070    0.3985 C   0  0  0  0  0  0  0  0  0  0  0  0
    0.3873    2.9283    1.0269 C   0  0  0  0  0  0  0  0  0  0  0  0
    0.4168    1.9251    2.0137 C   0  0  0  0  0  0  0  0  0  0  0  0
    1.4976    1.0543    2.1147 C   0  0  0  0  0  0  0  0  0  0  0  0
    2.5533    1.2114    1.2058 C   0  0  0  0  0  0  0  0  0  0  0  0
   -0.9316    3.2359    0.4270 C   0  0  0  0  0  0  0  0  0  0  0  0
   -1.0877    3.0955   -0.9478 C   0  0  0  0  0  0  0  0  0  0  0  0
   -2.2862    2.5858   -1.4296 C   0  0  0  0  0  0  0  0  0  0  0  0
   -3.3033    2.2785   -0.5414 C   0  0  0  0  0  0  0  0  0  0  0  0
   -3.2042    2.6722    0.7443 N   0  0  0  0  0  0  0  0  0  0  0  0
   -2.0074    3.1323    1.2406 N   0  0  0  0  0  0  0  0  0  0  0  0
   -4.3402    1.4448   -0.9344 N   0  0  0  0  0  0  0  0  0  0  0  0
   -5.6603    1.6727   -0.3537 C   0  0  0  0  0  0  0  0  0  0  0  0
   -5.8850    0.8193    0.8722 C   0  0  0  0  0  0  0  0  0  0  0  0
   -5.7153   -0.8884    0.4270 S   0  0  0  0  0  0  0  0  0  0  0  0
   -5.7301   -1.6654    1.6532 O   0  0  0  0  0  0  0  0  0  0  0  0
   -6.6900   -1.1815   -0.6092 O   0  0  0  0  0  0  0  0  0  0  0  0
   -4.0833   -0.9787   -0.3031 C   0  0  0  0  0  0  0  0  0  0  0  0
   -2.9936   -0.9357    0.7723 C   0  0  0  0  0  0  0  0  0  0  0  0
   -1.7781   -1.5728    0.3208 O   0  0  0  0  0  0  0  0  0  0  0  0
   -0.9310   -1.8703    1.4431 C   0  0  0  0  0  0  0  0  0  0  0  0
    0.2750   -2.6951    1.0164 C   0  0  0  0  0  0  0  0  0  0  0  0
    0.0255   -4.1567    0.6537 C   0  0  0  0  0  0  0  0  0  0  0  0
    0.6728   -3.8342    1.9606 C   0  0  0  0  0  0  0  0  0  0  0  0
    1.3600   -1.8789    0.2684 C   0  0  2  0  0  0  0  0  0  0  0  0
    1.4295   -2.2034   -1.2534 C   0  0  0  0  0  0  0  0  0  0  0  0
    0.2020   -2.2506   -1.8228 F   0  0  0  0  0  0  0  0  0  0  0  0
    2.0345   -3.3918   -1.4924 F   0  0  0  0  0  0  0  0  0  0  0  0
    2.1282   -1.2562   -1.9287 F   0  0  0  0  0  0  0  0  0  0  0  0
    2.6729   -2.0038    0.9749 N   0  0  0  0  0  0  0  0  0  0  0  0
   -3.9876    0.0891   -1.3976 C   0  0  0  0  0  0  0  0  0  0  0  0
    8.3527    1.5500   -2.2537 H   0  0  0  0  0  0  0  0  0  0  0  0
    8.0756    0.0030   -1.5387 H   0  0  0  0  0  0  0  0  0  0  0  0
    6.5723   -1.3407   -0.8598 H   0  0  0  0  0  0  0  0  0  0  0  0
    4.3016    3.1202   -0.6674 H   0  0  0  0  0  0  0  0  0  0  0  0
    1.6347    4.1335   -0.3047 H   0  0  0  0  0  0  0  0  0  0  0  0
   -0.4840    1.6790    2.5760 H   0  0  0  0  0  0  0  0  0  0  0  0
    1.4380    0.1757    2.7512 H   0  0  0  0  0  0  0  0  0  0  0  0
   -0.2449    3.1675   -1.6279 H   0  0  0  0  0  0  0  0  0  0  0  0
   -2.3782    2.3301   -2.4803 H   0  0  0  0  0  0  0  0  0  0  0  0
   -5.8045    2.7321   -0.1067 H   0  0  0  0  0  0  0  0  0  0  0  0
   -6.4147    1.4421   -1.1162 H   0  0  0  0  0  0  0  0  0  0  0  0
   -6.8961    0.9565    1.2667 H   0  0  0  0  0  0  0  0  0  0  0  0
   -5.1678    1.0284    1.6706 H   0  0  0  0  0  0  0  0  0  0  0  0
   -4.0374   -1.9618   -0.7894 H   0  0  0  0  0  0  0  0  0  0  0  0
   -3.3363   -1.4699    1.6642 H   0  0  0  0  0  0  0  0  0  0  0  0
   -2.7551    0.0828    1.0845 H   0  0  0  0  0  0  0  0  0  0  0  0
   -0.6147   -0.9371    1.9165 H   0  0  0  0  0  0  0  0  0  0  0  0
   -1.5106   -2.4346    2.1845 H   0  0  0  0  0  0  0  0  0  0  0  0
    0.6372   -4.6541   -0.0900 H   0  0  0  0  0  0  0  0  0  0  0  0
   -0.9986   -4.5184    0.6647 H   0  0  0  0  0  0  0  0  0  0  0  0
    0.0932   -3.9936    2.8649 H   0  0  0  0  0  0  0  0  0  0  0  0
    1.7106   -4.1186    2.0859 H   0  0  0  0  0  0  0  0  0  0  0  0
    1.0326   -0.8380    0.3109 H   0  0  0  0  0  0  0  0  0  0  0  0
    3.0760   -2.9367    0.9273 H   0  0  0  0  0  0  0  0  0  0  0  0
   -2.9918    0.0553   -1.8560 H   0  0  0  0  0  0  0  0  0  0  0  0
   -4.6868   -0.1665   -2.2045 H   0  0  0  0  0  0  0  0  0  0  0  0
  1  2  1  0
  2  3  2  0
  2  4  1  0
  4  5  2  0
  5  6  1  0
  6  7  2  0
  7  8  1  0
  8  9  2  0
  9 10  1  0
 10 11  1  0
 11 12  2  0
 12 13  1  0
 13 14  2  0
 14 15  1  0
 15 16  2  0
 13 17  1  0
 17 18  2  0
 18 19  1  0
 19 20  2  0
 20 21  1  0
 21 22  2  0
 20 23  1  0
 23 24  1  0
 24 25  1  0
 25 26  1  0
 26 27  2  0
 26 28  2  0
 26 29  1  0
 29 30  1  0
 30 31  1  0
 31 32  1  0
 32 33  1  0
 33 34  1  0
 34 35  1  0
 33 36  1  0
 36 37  1  0
 37 38  1  0
 37 39  1  0
 37 40  1  0
 36 41  1  0
 29 42  1  0
  9  4  1  0
 16 11  1  0
 22 17  1  0
 42 23  1  0
 41  7  1  0
 16  8  1  0
 35 33  1  0
  1 43  1  0
  1 44  1  0
  5 45  1  0
 10 46  1  0
 12 47  1  0
 14 48  1  0
 15 49  1  0
 18 50  1  0
 19 51  1  0
 24 52  1  0
 24 53  1  0
 25 54  1  0
 25 55  1  0
 29 56  1  0
 30 57  1  0
 30 58  1  0
 32 59  1  0
 32 60  1  0
 34 61  1  0
 34 62  1  0
 35 63  1  0
 35 64  1  0
 36 65  1  6
 41 66  1  0
 42 67  1  0
 42 68  1  0
M  END
>  <candidate_id>  (1) 
CAND_2f2a0d40fd

>  <source_generator>  (1) 
v5_3_model_guided_macrocycle

>  <parent_mol_id>  (1) 
JAK2_b8536fbab5

>  <canonical_smiles>  (1) 
NC(=O)c1cnc2c3c1[nH]c1cc(ccc13)-c1ccc(nn1)N1CCS(=O)(=O)C(COCC3(CC3)[C@H](C(F)(F)F)N2)C1

>  <inchikey>  (1) 
GBZHOBHXRZEBCG-FFMAFDDDSA-N

>  <valid_rdkit>  (1) 
True

>  <unique_flag>  (1) 
True

>  <novel_flag>  (1) 
True

>  <mw>  (1) 
601.611

>  <logp>  (1) 
3.0286

>  <tpsa>  (1) 
156.19

>  <hbd>  (1) 
3

>  <hba>  (1) 
9

>  <rotatable_bonds>  (1) 
1

>  <qed>  (1) 
0.2985

>  <sa_score>  (1) 
5.423

>  <murcko_scaffold>  (1) 
O=S1(=O)CCN2CC1COCC1(CC1)CNc1nccc3[nH]c4cc(ccc4c13)-c1ccc2nn1

>  <max_ring_size>  (1) 
19

>  <has_macrocycle_12_20>  (1) 
True

>  <has_constrained_ring_8_11>  (1) 
False

>  <passes_basic_filters>  (1) 
True

>  <generation_notes>  (1) 
v5_3_model_guided_anchor_pair=9-28;anchor_scores=0.691,0.079;linker_length=3;target_ring=18;linker_prob=0.649;chemotype=oxa

$$$$
