CAND_02bca8d718
     RDKit          3D

 55 60  0  0  0  0  0  0  0  0999 V2000
    7.2118    0.9205   -0.7303 N   0  0  0  0  0  0  0  0  0  0  0  0
    6.3949    0.3673   -0.1203 C   0  0  0  0  0  0  0  0  0  0  0  0
    5.3744   -0.3458    0.6456 C   0  0  1  0  0  0  0  0  0  0  0  0
    5.1320    0.2584    2.0279 C   0  0  0  0  0  0  0  0  0  0  0  0
    3.7500   -0.2677    2.3864 C   0  0  0  0  0  0  0  0  0  0  0  0
    3.0621   -0.3853    1.1124 N   0  0  0  0  0  0  0  0  0  0  0  0
    1.6893   -0.5197    1.0564 C   0  0  0  0  0  0  0  0  0  0  0  0
    1.0225   -0.5842    2.0942 O   0  0  0  0  0  0  0  0  0  0  0  0
    1.0123   -0.5620   -0.3393 C   0  0  2  0  0  0  0  0  0  0  0  0
    0.0490    0.5154   -0.4313 N   0  0  0  0  0  0  0  0  0  0  0  0
    0.3657    1.7858   -0.8400 C   0  0  0  0  0  0  0  0  0  0  0  0
    1.5030    2.1295   -1.1446 O   0  0  0  0  0  0  0  0  0  0  0  0
   -0.7823    2.6805   -0.9086 C   0  0  0  0  0  0  0  0  0  0  0  0
   -0.7779    4.0040   -1.3294 C   0  0  0  0  0  0  0  0  0  0  0  0
   -2.0693    4.4803   -1.2917 N   0  0  0  0  0  0  0  0  0  0  0  0
   -2.9100    3.4919   -0.8614 C   0  0  0  0  0  0  0  0  0  0  0  0
   -4.2471    3.5727   -0.7238 N   0  0  0  0  0  0  0  0  0  0  0  0
   -4.7538    2.3862   -0.2779 C   0  0  0  0  0  0  0  0  0  0  0  0
   -4.0176    1.2257    0.0147 C   0  0  0  0  0  0  0  0  0  0  0  0
   -2.6720    1.2186   -0.1360 N   0  0  0  0  0  0  0  0  0  0  0  0
   -2.1335    2.3764   -0.5954 C   0  0  0  0  0  0  0  0  0  0  0  0
   -4.6983   -0.0297    0.5409 C   0  0  0  0  0  0  0  0  0  0  0  0
   -3.9738   -0.8470    1.5913 C   0  0  0  0  0  0  0  0  0  0  0  0
   -4.2428   -1.4551    0.2379 C   0  0  0  0  0  0  0  0  0  0  0  0
   -3.1576   -1.7991   -0.7361 C   0  0  0  0  0  0  0  0  0  0  0  0
   -2.1912   -3.2134   -0.1222 S   0  0  0  0  0  0  0  0  0  0  0  0
   -0.6981   -2.3502    0.4412 C   0  0  0  0  0  0  0  0  0  0  0  0
    0.2929   -1.8943   -0.6315 C   0  0  0  0  0  0  0  0  0  0  0  0
    1.1276   -2.9922   -1.2821 C   0  0  0  0  0  0  0  0  0  0  0  0
    0.1240   -2.2532   -2.1095 C   0  0  0  0  0  0  0  0  0  0  0  0
    3.9948   -0.2570   -0.0011 C   0  0  0  0  0  0  0  0  0  0  0  0
    5.6560   -1.4005    0.7604 H   0  0  0  0  0  0  0  0  0  0  0  0
    5.8917   -0.0301    2.7609 H   0  0  0  0  0  0  0  0  0  0  0  0
    5.1133    1.3551    1.9787 H   0  0  0  0  0  0  0  0  0  0  0  0
    3.2102    0.3934    3.0711 H   0  0  0  0  0  0  0  0  0  0  0  0
    3.8048   -1.2683    2.8294 H   0  0  0  0  0  0  0  0  0  0  0  0
    1.7571   -0.3834   -1.1191 H   0  0  0  0  0  0  0  0  0  0  0  0
   -0.8993    0.3526   -0.1042 H   0  0  0  0  0  0  0  0  0  0  0  0
    0.0362    4.6355   -1.6629 H   0  0  0  0  0  0  0  0  0  0  0  0
   -2.3740    5.4075   -1.5527 H   0  0  0  0  0  0  0  0  0  0  0  0
   -5.8329    2.3911   -0.1453 H   0  0  0  0  0  0  0  0  0  0  0  0
   -5.7723    0.0706    0.6959 H   0  0  0  0  0  0  0  0  0  0  0  0
   -2.9604   -0.5698    1.8574 H   0  0  0  0  0  0  0  0  0  0  0  0
   -4.5486   -1.2175    2.4334 H   0  0  0  0  0  0  0  0  0  0  0  0
   -5.0247   -2.2111    0.2021 H   0  0  0  0  0  0  0  0  0  0  0  0
   -2.4917   -0.9780   -0.9889 H   0  0  0  0  0  0  0  0  0  0  0  0
   -3.6274   -2.1100   -1.6757 H   0  0  0  0  0  0  0  0  0  0  0  0
   -1.0323   -1.5117    1.0553 H   0  0  0  0  0  0  0  0  0  0  0  0
   -0.1732   -3.0314    1.1210 H   0  0  0  0  0  0  0  0  0  0  0  0
    2.1775   -2.8139   -1.4833 H   0  0  0  0  0  0  0  0  0  0  0  0
    0.9090   -4.0275   -1.0374 H   0  0  0  0  0  0  0  0  0  0  0  0
    0.4927   -1.5555   -2.8558 H   0  0  0  0  0  0  0  0  0  0  0  0
   -0.7375   -2.8089   -2.4589 H   0  0  0  0  0  0  0  0  0  0  0  0
    3.8129    0.7090   -0.4855 H   0  0  0  0  0  0  0  0  0  0  0  0
    3.8322   -1.0547   -0.7321 H   0  0  0  0  0  0  0  0  0  0  0  0
  1  2  3  0
  2  3  1  0
  3  4  1  0
  4  5  1  0
  5  6  1  0
  6  7  1  0
  7  8  2  0
  7  9  1  0
  9 10  1  0
 10 11  1  0
 11 12  2  0
 11 13  1  0
 13 14  2  0
 14 15  1  0
 15 16  1  0
 16 17  2  0
 17 18  1  0
 18 19  2  0
 19 20  1  0
 20 21  2  0
 19 22  1  0
 22 23  1  0
 23 24  1  0
 24 25  1  0
 25 26  1  0
 26 27  1  0
 27 28  1  0
 28 29  1  0
 29 30  1  0
  6 31  1  0
 31  3  1  0
 28  9  1  0
 21 13  1  0
 24 22  1  0
 30 28  1  0
 21 16  1  0
  3 32  1  1
  4 33  1  0
  4 34  1  0
  5 35  1  0
  5 36  1  0
  9 37  1  6
 10 38  1  0
 14 39  1  0
 15 40  1  0
 18 41  1  0
 22 42  1  0
 23 43  1  0
 23 44  1  0
 24 45  1  0
 25 46  1  0
 25 47  1  0
 27 48  1  0
 27 49  1  0
 29 50  1  0
 29 51  1  0
 30 52  1  0
 30 53  1  0
 31 54  1  0
 31 55  1  0
M  END
>  <candidate_id>  (1) 
CAND_02bca8d718

>  <source_generator>  (1) 
v5_3_model_guided_macrocycle

>  <parent_mol_id>  (1) 
JAK2_9dcdbe0544

>  <canonical_smiles>  (1) 
N#C[C@H]1CCN(C(=O)[C@@H]2NC(=O)c3c[nH]c4ncc(nc34)C3CC3CSCC23CC3)C1

>  <inchikey>  (1) 
YLWJLPCJNFQMCO-XILSRCRHSA-N

>  <valid_rdkit>  (1) 
True

>  <unique_flag>  (1) 
True

>  <novel_flag>  (1) 
True

>  <mw>  (1) 
436.541

>  <logp>  (1) 
2.0589

>  <tpsa>  (1) 
114.77

>  <hbd>  (1) 
2

>  <hba>  (1) 
6

>  <rotatable_bonds>  (1) 
1

>  <qed>  (1) 
0.7072

>  <sa_score>  (1) 
5.006

>  <murcko_scaffold>  (1) 
O=C1N[C@@H](C(=O)N2CCCC2)C2(CC2)CSCC2CC2c2cnc3[nH]cc1c3n2

>  <max_ring_size>  (1) 
13

>  <has_macrocycle_12_20>  (1) 
True

>  <has_constrained_ring_8_11>  (1) 
False

>  <passes_basic_filters>  (1) 
True

>  <generation_notes>  (1) 
v5_3_model_guided_anchor_pair=24-20;anchor_scores=0.691,0.079;linker_length=3;target_ring=12;linker_prob=0.278;chemotype=thioether

$$$$
