CAND_ebd66c7b75
     RDKit          3D

 63 68  0  0  0  0  0  0  0  0999 V2000
   -5.1221   -0.1471    0.1408 O   0  0  0  0  0  0  0  0  0  0  0  0
   -4.0884   -0.4092   -0.4643 C   0  0  0  0  0  0  0  0  0  0  0  0
   -3.4215   -1.6145   -0.4378 N   0  0  0  0  0  0  0  0  0  0  0  0
   -3.5774   -2.5789    0.5415 C   0  0  0  0  0  0  0  0  0  0  0  0
   -4.5771   -2.7658    1.4593 C   0  0  0  0  0  0  0  0  0  0  0  0
   -4.1255   -3.7266    2.3189 N   0  0  0  0  0  0  0  0  0  0  0  0
   -2.8611   -4.1331    2.0671 N   0  0  0  0  0  0  0  0  0  0  0  0
   -2.5685   -3.4979    0.9264 C   0  0  0  0  0  0  0  0  0  0  0  0
   -1.1775   -3.5401    0.2263 C   0  0  0  0  0  0  0  0  0  0  0  0
   -0.9431   -3.0868   -0.9916 N   0  0  0  0  0  0  0  0  0  0  0  0
    0.4116   -2.8973   -1.0361 C   0  0  0  0  0  0  0  0  0  0  0  0
    1.1927   -2.3354   -2.0539 C   0  0  0  0  0  0  0  0  0  0  0  0
    2.4896   -1.9233   -1.7304 C   0  0  0  0  0  0  0  0  0  0  0  0
    2.9898   -2.0750   -0.4248 C   0  0  0  0  0  0  0  0  0  0  0  0
    2.2874   -2.8380    0.5315 C   0  0  0  0  0  0  0  0  0  0  0  0
    0.9942   -3.2272    0.1826 C   0  0  0  0  0  0  0  0  0  0  0  0
   -0.0154   -3.8469    0.8834 N   0  0  0  0  0  0  0  0  0  0  0  0
    4.1841   -1.2517    0.0200 C   0  0  0  0  0  0  0  0  0  0  0  0
    3.7740   -0.0059    0.7311 N   0  0  0  0  0  0  0  0  0  0  0  0
    4.9360    0.5834    1.4324 C   0  0  0  0  0  0  0  0  0  0  0  0
    5.7714    1.5115    0.5377 C   0  0  0  0  0  0  0  0  0  0  0  0
    5.0320    2.6204    0.0043 O   0  0  0  0  0  0  0  0  0  0  0  0
    3.6105    2.4610    0.1128 C   0  0  0  0  0  0  0  0  0  0  0  0
    3.1473    1.0117   -0.1897 C   0  0  0  0  0  0  0  0  0  0  0  0
    1.5948    0.8513   -0.2294 C   0  0  0  0  0  0  0  0  0  0  0  0
    0.7275    2.0540    0.1889 C   0  0  0  0  0  0  0  0  0  0  0  0
   -0.6955    1.7220   -0.0081 N   0  0  0  0  0  0  0  0  0  0  0  0
   -1.5449    2.9149    0.1341 C   0  0  0  0  0  0  0  0  0  0  0  0
   -3.0554    2.6127    0.1741 C   0  0  0  0  0  0  0  0  0  0  0  0
   -3.6138    1.9518   -1.0855 C   0  0  0  0  0  0  0  0  0  0  0  0
   -3.6281    2.7550   -2.3711 C   0  0  0  0  0  0  0  0  0  0  0  0
   -4.9129    2.5011   -1.6441 C   0  0  0  0  0  0  0  0  0  0  0  0
   -3.3606    0.5341   -1.1757 N   0  0  0  0  0  0  0  0  0  0  0  0
   -2.5914   -1.7239   -1.0132 H   0  0  0  0  0  0  0  0  0  0  0  0
   -5.5336   -2.2837    1.5986 H   0  0  0  0  0  0  0  0  0  0  0  0
   -4.6032   -4.1091    3.1282 H   0  0  0  0  0  0  0  0  0  0  0  0
    0.7535   -2.0980   -3.0162 H   0  0  0  0  0  0  0  0  0  0  0  0
    3.0543   -1.3602   -2.4714 H   0  0  0  0  0  0  0  0  0  0  0  0
    2.6660   -2.9683    1.5398 H   0  0  0  0  0  0  0  0  0  0  0  0
    0.0198   -4.1325    1.8505 H   0  0  0  0  0  0  0  0  0  0  0  0
    4.8423   -1.0348   -0.8328 H   0  0  0  0  0  0  0  0  0  0  0  0
    4.7690   -1.8897    0.6972 H   0  0  0  0  0  0  0  0  0  0  0  0
    4.5485    1.1629    2.2846 H   0  0  0  0  0  0  0  0  0  0  0  0
    5.5748   -0.1953    1.8700 H   0  0  0  0  0  0  0  0  0  0  0  0
    6.1978    0.9559   -0.3104 H   0  0  0  0  0  0  0  0  0  0  0  0
    6.6090    1.9243    1.1097 H   0  0  0  0  0  0  0  0  0  0  0  0
    3.2988    2.7873    1.1151 H   0  0  0  0  0  0  0  0  0  0  0  0
    3.1748    3.1590   -0.6105 H   0  0  0  0  0  0  0  0  0  0  0  0
    3.5262    0.8072   -1.2031 H   0  0  0  0  0  0  0  0  0  0  0  0
    1.3234    0.6013   -1.2718 H   0  0  0  0  0  0  0  0  0  0  0  0
    1.2888   -0.0129    0.3816 H   0  0  0  0  0  0  0  0  0  0  0  0
    0.9058    2.2954    1.2484 H   0  0  0  0  0  0  0  0  0  0  0  0
    0.9776    2.9280   -0.4267 H   0  0  0  0  0  0  0  0  0  0  0  0
   -0.9756    1.0171    0.6779 H   0  0  0  0  0  0  0  0  0  0  0  0
   -1.3390    3.6046   -0.6948 H   0  0  0  0  0  0  0  0  0  0  0  0
   -1.2908    3.4355    1.0696 H   0  0  0  0  0  0  0  0  0  0  0  0
   -3.2902    1.9902    1.0449 H   0  0  0  0  0  0  0  0  0  0  0  0
   -3.5775    3.5652    0.3446 H   0  0  0  0  0  0  0  0  0  0  0  0
   -3.2349    3.7645   -2.3605 H   0  0  0  0  0  0  0  0  0  0  0  0
   -3.4746    2.2324   -3.3096 H   0  0  0  0  0  0  0  0  0  0  0  0
   -5.3892    3.3306   -1.1312 H   0  0  0  0  0  0  0  0  0  0  0  0
   -5.6197    1.7968   -2.0737 H   0  0  0  0  0  0  0  0  0  0  0  0
   -2.4649    0.2662   -1.5629 H   0  0  0  0  0  0  0  0  0  0  0  0
  1  2  2  0
  2  3  1  0
  3  4  1  0
  4  5  2  0
  5  6  1  0
  6  7  1  0
  7  8  2  0
  8  9  1  0
  9 10  2  0
 10 11  1  0
 11 12  2  0
 12 13  1  0
 13 14  2  0
 14 15  1  0
 15 16  2  0
 16 17  1  0
 14 18  1  0
 18 19  1  0
 19 20  1  0
 20 21  1  0
 21 22  1  0
 22 23  1  0
 23 24  1  0
 24 25  1  0
 25 26  1  0
 26 27  1  0
 27 28  1  0
 28 29  1  0
 29 30  1  0
 30 31  1  0
 31 32  1  0
 30 33  1  0
 33  2  1  0
  8  4  1  0
 17  9  1  0
 24 19  1  0
 32 30  1  0
 16 11  1  0
  3 34  1  0
  5 35  1  0
  6 36  1  0
 12 37  1  0
 13 38  1  0
 15 39  1  0
 17 40  1  0
 18 41  1  0
 18 42  1  0
 20 43  1  0
 20 44  1  0
 21 45  1  0
 21 46  1  0
 23 47  1  0
 23 48  1  0
 24 49  1  0
 25 50  1  0
 25 51  1  0
 26 52  1  0
 26 53  1  0
 27 54  1  0
 28 55  1  0
 28 56  1  0
 29 57  1  0
 29 58  1  0
 31 59  1  0
 31 60  1  0
 32 61  1  0
 32 62  1  0
 33 63  1  0
M  END
>  <candidate_id>  (1) 
CAND_ebd66c7b75

>  <source_generator>  (1) 
v5_3_model_guided_macrocycle

>  <parent_mol_id>  (1) 
JAK2_dbe7510318

>  <canonical_smiles>  (1) 
O=C1Nc2c[nH]nc2-c2nc3ccc(cc3[nH]2)CN2CCOCC2CCNCCC2(CC2)N1

>  <inchikey>  (1) 
IQKCQIODXLYFBQ-UHFFFAOYSA-N

>  <valid_rdkit>  (1) 
True

>  <unique_flag>  (1) 
True

>  <novel_flag>  (1) 
True

>  <mw>  (1) 
450.547

>  <logp>  (1) 
2.1913

>  <tpsa>  (1) 
122.99

>  <hbd>  (1) 
5

>  <hba>  (1) 
6

>  <rotatable_bonds>  (1) 
0

>  <qed>  (1) 
0.3578

>  <sa_score>  (1) 
4.209

>  <murcko_scaffold>  (1) 
O=C1Nc2c[nH]nc2-c2nc3ccc(cc3[nH]2)CN2CCOCC2CCNCCC2(CC2)N1

>  <max_ring_size>  (1) 
19

>  <has_macrocycle_12_20>  (1) 
True

>  <has_constrained_ring_8_11>  (1) 
False

>  <passes_basic_filters>  (1) 
True

>  <generation_notes>  (1) 
v5_3_model_guided_anchor_pair=25-16;anchor_scores=0.691,0.079;linker_length=5;target_ring=18;linker_prob=0.200;chemotype=aza

$$$$
