CAND_f134535edd
     RDKit          3D

 76 82  0  0  0  0  0  0  0  0999 V2000
   -5.1846    2.4830    1.9155 C   0  0  0  0  0  0  0  0  0  0  0  0
   -5.1405    2.8063    0.4887 N   0  0  0  0  0  0  0  0  0  0  0  0
   -4.5368    4.1479    0.2748 C   0  0  0  0  0  0  0  0  0  0  0  0
   -3.0549    4.1969   -0.1912 C   0  0  0  0  0  0  0  0  0  0  0  0
   -2.3098    3.0681    0.3603 N   0  0  0  0  0  0  0  0  0  0  0  0
   -0.9470    3.2069    0.5568 C   0  0  0  0  0  0  0  0  0  0  0  0
   -0.2754    2.3316    1.4054 C   0  0  0  0  0  0  0  0  0  0  0  0
    1.1124    2.2741    1.3759 C   0  0  0  0  0  0  0  0  0  0  0  0
    1.8318    3.1006    0.5093 C   0  0  0  0  0  0  0  0  0  0  0  0
    1.0864    4.0314   -0.2028 C   0  0  0  0  0  0  0  0  0  0  0  0
   -0.2691    4.1125   -0.1800 N   0  0  0  0  0  0  0  0  0  0  0  0
    3.2472    2.8502    0.2610 C   0  0  0  0  0  0  0  0  0  0  0  0
    4.2407    3.8008    0.1309 C   0  0  0  0  0  0  0  0  0  0  0  0
    5.5264    3.4771   -0.1629 N   0  0  0  0  0  0  0  0  0  0  0  0
    5.7985    2.1659   -0.3497 C   0  0  0  0  0  0  0  0  0  0  0  0
    7.0855    1.7610   -0.6786 C   0  0  0  0  0  0  0  0  0  0  0  0
    7.3926    0.4171   -0.9000 C   0  0  0  0  0  0  0  0  0  0  0  0
    6.3941   -0.5469   -0.7954 C   0  0  0  0  0  0  0  0  0  0  0  0
    5.0861   -0.1714   -0.4592 C   0  0  0  0  0  0  0  0  0  0  0  0
    4.7913    1.1824   -0.2277 C   0  0  0  0  0  0  0  0  0  0  0  0
    3.5363    1.5398    0.0945 N   0  0  0  0  0  0  0  0  0  0  0  0
    4.0156   -1.1812   -0.3683 C   0  0  0  0  0  0  0  0  0  0  0  0
    3.3243   -1.6032   -1.5133 C   0  0  0  0  0  0  0  0  0  0  0  0
    2.2474   -2.4861   -1.4068 C   0  0  0  0  0  0  0  0  0  0  0  0
    1.6169   -2.8651   -2.5274 F   0  0  0  0  0  0  0  0  0  0  0  0
    1.8257   -2.9802   -0.1742 C   0  0  0  0  0  0  0  0  0  0  0  0
    2.5235   -2.5620    0.9597 C   0  0  0  0  0  0  0  0  0  0  0  0
    2.1710   -3.0242    2.1688 F   0  0  0  0  0  0  0  0  0  0  0  0
    3.6015   -1.6798    0.8745 C   0  0  0  0  0  0  0  0  0  0  0  0
    0.6918   -3.9606   -0.0641 C   0  0  0  0  0  0  0  0  0  0  0  0
   -0.5567   -3.3695    0.4701 N   0  0  0  0  0  0  0  0  0  0  0  0
   -1.2813   -4.3151    1.3260 C   0  0  0  0  0  0  0  0  0  0  0  0
   -1.8226   -5.5347    0.6046 C   0  0  0  0  0  0  0  0  0  0  0  0
   -2.8120   -5.0559   -0.7883 S   0  0  0  0  0  0  0  0  0  0  0  0
   -4.1723   -5.4946   -0.5350 O   0  0  0  0  0  0  0  0  0  0  0  0
   -2.1189   -5.4616   -1.9962 O   0  0  0  0  0  0  0  0  0  0  0  0
   -2.8109   -3.2880   -0.7164 C   0  0  0  0  0  0  0  0  0  0  0  0
   -1.3917   -2.7270   -0.5844 C   0  0  0  0  0  0  0  0  0  0  0  0
   -1.4612   -1.1968   -0.2780 C   0  0  0  0  0  0  0  0  0  0  0  0
   -2.2753   -0.4433   -1.2459 N   0  0  0  0  0  0  0  0  0  0  0  0
   -2.0868    1.0146   -1.1138 C   0  0  0  0  0  0  0  0  0  0  0  0
   -2.8462    1.7126    0.0673 C   0  0  0  0  0  0  0  0  0  0  0  0
   -4.3724    1.7917   -0.2632 C   0  0  0  0  0  0  0  0  0  0  0  0
   -4.2016    2.5182    2.3970 H   0  0  0  0  0  0  0  0  0  0  0  0
   -5.8446    3.1830    2.4405 H   0  0  0  0  0  0  0  0  0  0  0  0
   -5.6080    1.4842    2.0698 H   0  0  0  0  0  0  0  0  0  0  0  0
   -4.6421    4.7595    1.1811 H   0  0  0  0  0  0  0  0  0  0  0  0
   -5.1378    4.6642   -0.4844 H   0  0  0  0  0  0  0  0  0  0  0  0
   -3.0080    4.1641   -1.2871 H   0  0  0  0  0  0  0  0  0  0  0  0
   -2.6344    5.1578    0.1311 H   0  0  0  0  0  0  0  0  0  0  0  0
   -0.8209    1.6406    2.0377 H   0  0  0  0  0  0  0  0  0  0  0  0
    1.6249    1.5202    1.9704 H   0  0  0  0  0  0  0  0  0  0  0  0
    1.5545    4.7212   -0.9004 H   0  0  0  0  0  0  0  0  0  0  0  0
    4.0460    4.8597    0.2590 H   0  0  0  0  0  0  0  0  0  0  0  0
    7.8657    2.5132   -0.7706 H   0  0  0  0  0  0  0  0  0  0  0  0
    8.4081    0.1275   -1.1602 H   0  0  0  0  0  0  0  0  0  0  0  0
    6.6357   -1.5923   -0.9776 H   0  0  0  0  0  0  0  0  0  0  0  0
    3.5960   -1.2278   -2.4967 H   0  0  0  0  0  0  0  0  0  0  0  0
    4.0964   -1.3678    1.7905 H   0  0  0  0  0  0  0  0  0  0  0  0
    1.0509   -4.7549    0.6061 H   0  0  0  0  0  0  0  0  0  0  0  0
    0.5153   -4.4719   -1.0194 H   0  0  0  0  0  0  0  0  0  0  0  0
   -0.6266   -4.6432    2.1436 H   0  0  0  0  0  0  0  0  0  0  0  0
   -2.0990   -3.7837    1.8297 H   0  0  0  0  0  0  0  0  0  0  0  0
   -2.4528   -6.1232    1.2784 H   0  0  0  0  0  0  0  0  0  0  0  0
   -1.0189   -6.1805    0.2382 H   0  0  0  0  0  0  0  0  0  0  0  0
   -3.2912   -2.9461   -1.6395 H   0  0  0  0  0  0  0  0  0  0  0  0
   -3.4494   -2.9933    0.1240 H   0  0  0  0  0  0  0  0  0  0  0  0
   -0.9081   -2.8423   -1.5638 H   0  0  0  0  0  0  0  0  0  0  0  0
   -0.4353   -0.8070   -0.2811 H   0  0  0  0  0  0  0  0  0  0  0  0
   -1.8645   -1.0451    0.7309 H   0  0  0  0  0  0  0  0  0  0  0  0
   -3.2622   -0.6745   -1.1532 H   0  0  0  0  0  0  0  0  0  0  0  0
   -2.4209    1.4703   -2.0548 H   0  0  0  0  0  0  0  0  0  0  0  0
   -1.0112    1.2174   -1.0866 H   0  0  0  0  0  0  0  0  0  0  0  0
   -2.7413    1.1096    0.9771 H   0  0  0  0  0  0  0  0  0  0  0  0
   -4.8278    0.8032   -0.1208 H   0  0  0  0  0  0  0  0  0  0  0  0
   -4.5080    2.0145   -1.3304 H   0  0  0  0  0  0  0  0  0  0  0  0
  1  2  1  0
  2  3  1  0
  3  4  1  0
  4  5  1  0
  5  6  1  0
  6  7  2  0
  7  8  1  0
  8  9  2  0
  9 10  1  0
 10 11  2  0
  9 12  1  0
 12 13  2  0
 13 14  1  0
 14 15  2  0
 15 16  1  0
 16 17  2  0
 17 18  1  0
 18 19  2  0
 19 20  1  0
 20 21  2  0
 19 22  1  0
 22 23  2  0
 23 24  1  0
 24 25  1  0
 24 26  2  0
 26 27  1  0
 27 28  1  0
 27 29  2  0
 26 30  1  0
 30 31  1  0
 31 32  1  0
 32 33  1  0
 33 34  1  0
 34 35  2  0
 34 36  2  0
 34 37  1  0
 37 38  1  0
 38 39  1  0
 39 40  1  0
 40 41  1  0
 41 42  1  0
 42 43  1  0
 43  2  1  0
 42  5  1  0
 11  6  1  0
 21 12  1  0
 29 22  1  0
 38 31  1  0
 20 15  1  0
  1 44  1  0
  1 45  1  0
  1 46  1  0
  3 47  1  0
  3 48  1  0
  4 49  1  0
  4 50  1  0
  7 51  1  0
  8 52  1  0
 10 53  1  0
 13 54  1  0
 16 55  1  0
 17 56  1  0
 18 57  1  0
 23 58  1  0
 29 59  1  0
 30 60  1  0
 30 61  1  0
 32 62  1  0
 32 63  1  0
 33 64  1  0
 33 65  1  0
 37 66  1  0
 37 67  1  0
 38 68  1  0
 39 69  1  0
 39 70  1  0
 40 71  1  0
 41 72  1  0
 41 73  1  0
 42 74  1  0
 43 75  1  0
 43 76  1  0
M  END
>  <candidate_id>  (1) 
CAND_f134535edd

>  <source_generator>  (1) 
v5_3_model_guided_macrocycle

>  <parent_mol_id>  (1) 
JAK2_52b2cf11d9

>  <canonical_smiles>  (1) 
CN1CCN2c3ccc(cn3)-c3cnc4cccc(c4n3)-c3cc(F)c(c(F)c3)CN3CCS(=O)(=O)CC3CNCC2C1

>  <inchikey>  (1) 
YGRQCALJJPLZDA-UHFFFAOYSA-N

>  <valid_rdkit>  (1) 
True

>  <unique_flag>  (1) 
True

>  <novel_flag>  (1) 
True

>  <mw>  (1) 
605.715

>  <logp>  (1) 
2.9596

>  <tpsa>  (1) 
94.56

>  <hbd>  (1) 
1

>  <hba>  (1) 
9

>  <rotatable_bonds>  (1) 
0

>  <qed>  (1) 
0.3248

>  <sa_score>  (1) 
5.321

>  <murcko_scaffold>  (1) 
O=S1(=O)CCN2Cc3ccc(cc3)-c3cccc4ncc(nc34)-c3ccc(nc3)N3CCNCC3CNCC2C1

>  <max_ring_size>  (1) 
20

>  <has_macrocycle_12_20>  (1) 
True

>  <has_constrained_ring_8_11>  (1) 
False

>  <passes_basic_filters>  (1) 
True

>  <generation_notes>  (1) 
v5_3_model_guided_anchor_pair=3-24;anchor_scores=0.079,0.079;linker_length=3;target_ring=19;linker_prob=0.650;chemotype=aza

$$$$
