CAND_d32750a6b3
     RDKit          3D

 69 74  0  0  0  0  0  0  0  0999 V2000
    2.1210    1.0825    1.1247 C   0  0  0  0  0  0  0  0  0  0  0  0
    2.9421    0.7020    0.1185 C   0  0  0  0  0  0  0  0  0  0  0  0
    2.5896    0.9745   -1.3383 C   0  0  0  0  0  0  0  0  0  0  0  0
    1.1884    1.2168   -1.4738 O   0  0  0  0  0  0  0  0  0  0  0  0
    0.7016    0.9177   -2.7801 C   0  0  0  0  0  0  0  0  0  0  0  0
   -0.7668    1.2550   -2.8718 C   0  0  0  0  0  0  0  0  0  0  0  0
   -1.1985    2.5508   -2.5255 C   0  0  0  0  0  0  0  0  0  0  0  0
   -2.5243    2.9691   -2.7093 C   0  0  0  0  0  0  0  0  0  0  0  0
   -3.4315    2.0564   -3.2570 C   0  0  0  0  0  0  0  0  0  0  0  0
   -3.0369    0.7526   -3.5657 C   0  0  0  0  0  0  0  0  0  0  0  0
   -1.7222    0.3416   -3.3327 C   0  0  0  0  0  0  0  0  0  0  0  0
   -1.3560   -0.9530   -3.6039 O   0  0  0  0  0  0  0  0  0  0  0  0
   -1.9883   -1.8986   -2.7123 C   0  0  0  0  0  0  0  0  0  0  0  0
   -1.1786   -2.0873   -1.4100 C   0  0  0  0  0  0  0  0  0  0  0  0
   -0.2797   -3.2677   -1.3598 N   0  0  0  0  0  0  0  0  0  0  0  0
    0.6619   -3.3464   -2.4927 C   0  0  0  0  0  0  0  0  0  0  0  0
    2.0530   -3.0205   -1.9610 C   0  0  0  0  0  0  0  0  0  0  0  0
    1.7917   -2.4205   -0.5871 C   0  0  0  0  0  0  0  0  0  0  0  0
    2.9631   -2.4696    0.3895 C   0  0  0  0  0  0  0  0  0  0  0  0
    4.4573   -1.6383   -0.2768 S   0  0  0  0  0  0  0  0  0  0  0  0
    4.2839    0.0595    0.3596 C   0  0  0  0  0  0  0  0  0  0  0  0
    0.5661   -3.2098   -0.1445 C   0  0  0  0  0  0  0  0  0  0  0  0
   -2.9833    4.2250   -2.3004 N   0  0  0  0  0  0  0  0  0  0  0  0
   -2.5944    5.0294   -1.2340 C   0  0  0  0  0  0  0  0  0  0  0  0
   -3.1439    6.2535   -1.1809 N   0  0  0  0  0  0  0  0  0  0  0  0
   -2.8199    7.0266   -0.1266 C   0  0  0  0  0  0  0  0  0  0  0  0
   -1.9920    6.6210    0.8893 C   0  0  0  0  0  0  0  0  0  0  0  0
   -1.5020    5.3433    0.7655 C   0  0  0  0  0  0  0  0  0  0  0  0
   -1.7745    4.5557   -0.2904 N   0  0  0  0  0  0  0  0  0  0  0  0
   -0.6351    4.7394    1.7774 C   0  0  0  0  0  0  0  0  0  0  0  0
    0.4966    5.2496    2.3844 C   0  0  0  0  0  0  0  0  0  0  0  0
    1.0993    4.3195    3.2836 C   0  0  0  0  0  0  0  0  0  0  0  0
    0.4073    3.1259    3.3474 C   0  0  0  0  0  0  0  0  0  0  0  0
   -1.0061    3.1762    2.3821 S   0  0  0  0  0  0  0  0  0  0  0  0
    0.7464    1.8919    4.1273 C   0  0  0  0  0  0  0  0  0  0  0  0
    1.0573    0.8189    3.2338 O   0  0  0  0  0  0  0  0  0  0  0  0
    2.3307    0.9351    2.6011 C   0  0  0  0  0  0  0  0  0  0  0  0
    1.1876    1.5782    0.8582 H   0  0  0  0  0  0  0  0  0  0  0  0
    2.8777    0.1237   -1.9633 H   0  0  0  0  0  0  0  0  0  0  0  0
    3.1354    1.8563   -1.6917 H   0  0  0  0  0  0  0  0  0  0  0  0
    1.2478    1.5118   -3.5229 H   0  0  0  0  0  0  0  0  0  0  0  0
    0.8797   -0.1406   -2.9934 H   0  0  0  0  0  0  0  0  0  0  0  0
   -0.4685    3.2481   -2.1171 H   0  0  0  0  0  0  0  0  0  0  0  0
   -4.4684    2.3420   -3.4127 H   0  0  0  0  0  0  0  0  0  0  0  0
   -3.7631    0.0591   -3.9796 H   0  0  0  0  0  0  0  0  0  0  0  0
   -3.0154   -1.6007   -2.4666 H   0  0  0  0  0  0  0  0  0  0  0  0
   -2.0771   -2.8472   -3.2545 H   0  0  0  0  0  0  0  0  0  0  0  0
   -1.9091   -2.2327   -0.6037 H   0  0  0  0  0  0  0  0  0  0  0  0
   -0.6352   -1.1667   -1.1786 H   0  0  0  0  0  0  0  0  0  0  0  0
    0.6526   -4.3658   -2.8956 H   0  0  0  0  0  0  0  0  0  0  0  0
    0.4150   -2.6843   -3.3260 H   0  0  0  0  0  0  0  0  0  0  0  0
    2.6459   -3.9399   -1.8803 H   0  0  0  0  0  0  0  0  0  0  0  0
    2.5814   -2.3284   -2.6238 H   0  0  0  0  0  0  0  0  0  0  0  0
    1.4855   -1.3811   -0.7128 H   0  0  0  0  0  0  0  0  0  0  0  0
    3.2433   -3.5130    0.5731 H   0  0  0  0  0  0  0  0  0  0  0  0
    2.6939   -2.0418    1.3600 H   0  0  0  0  0  0  0  0  0  0  0  0
    4.5538    0.0382    1.4190 H   0  0  0  0  0  0  0  0  0  0  0  0
    5.0549    0.6685   -0.1268 H   0  0  0  0  0  0  0  0  0  0  0  0
    0.0574   -2.7560    0.7136 H   0  0  0  0  0  0  0  0  0  0  0  0
    0.8415   -4.2324    0.1428 H   0  0  0  0  0  0  0  0  0  0  0  0
   -3.7557    4.6358   -2.7994 H   0  0  0  0  0  0  0  0  0  0  0  0
   -3.2729    8.0138   -0.1212 H   0  0  0  0  0  0  0  0  0  0  0  0
   -1.7682    7.2562    1.7339 H   0  0  0  0  0  0  0  0  0  0  0  0
    0.9027    6.2290    2.1633 H   0  0  0  0  0  0  0  0  0  0  0  0
    2.0136    4.5100    3.8325 H   0  0  0  0  0  0  0  0  0  0  0  0
    1.5788    2.0595    4.8208 H   0  0  0  0  0  0  0  0  0  0  0  0
   -0.1165    1.5826    4.7276 H   0  0  0  0  0  0  0  0  0  0  0  0
    2.8759    0.0165    2.8338 H   0  0  0  0  0  0  0  0  0  0  0  0
    2.9067    1.7834    2.9871 H   0  0  0  0  0  0  0  0  0  0  0  0
  1  2  2  0
  2  3  1  0
  3  4  1  0
  4  5  1  0
  5  6  1  0
  6  7  1  0
  7  8  2  0
  8  9  1  0
  9 10  2  0
 10 11  1  0
 11 12  1  0
 12 13  1  0
 13 14  1  0
 14 15  1  0
 15 16  1  0
 16 17  1  0
 17 18  1  0
 18 19  1  0
 19 20  1  0
 20 21  1  0
 18 22  1  0
  8 23  1  0
 23 24  1  0
 24 25  1  0
 25 26  2  0
 26 27  1  0
 27 28  2  0
 28 29  1  0
 28 30  1  0
 30 31  2  0
 31 32  1  0
 32 33  2  0
 33 34  1  0
 33 35  1  0
 35 36  1  0
 36 37  1  0
 37  1  1  0
 21  2  1  0
 29 24  2  0
 34 30  1  0
 11  6  2  0
 22 15  1  0
  1 38  1  0
  3 39  1  0
  3 40  1  0
  5 41  1  0
  5 42  1  0
  7 43  1  0
  9 44  1  0
 10 45  1  0
 13 46  1  0
 13 47  1  0
 14 48  1  0
 14 49  1  0
 16 50  1  0
 16 51  1  0
 17 52  1  0
 17 53  1  0
 18 54  1  0
 19 55  1  0
 19 56  1  0
 21 57  1  0
 21 58  1  0
 22 59  1  0
 22 60  1  0
 23 61  1  0
 26 62  1  0
 27 63  1  0
 31 64  1  0
 32 65  1  0
 35 66  1  0
 35 67  1  0
 37 68  1  0
 37 69  1  0
M  END
>  <candidate_id>  (1) 
CAND_d32750a6b3

>  <source_generator>  (1) 
v5_3_model_guided_macrocycle

>  <parent_mol_id>  (1) 
JAK2_522c241c10

>  <canonical_smiles>  (1) 
C1=C2/COCc3cc(ccc3OCCN3CCC(CSC2)C3)Nc2nccc(n2)-c2ccc(s2)COC/1

>  <inchikey>  (1) 
VKQSSSKBPLFRGH-YXSASFKJSA-N

>  <valid_rdkit>  (1) 
True

>  <unique_flag>  (1) 
True

>  <novel_flag>  (1) 
True

>  <mw>  (1) 
536.723

>  <logp>  (1) 
5.3694

>  <tpsa>  (1) 
68.74

>  <hbd>  (1) 
1

>  <hba>  (1) 
9

>  <rotatable_bonds>  (1) 
0

>  <qed>  (1) 
0.3849

>  <sa_score>  (1) 
5.122

>  <murcko_scaffold>  (1) 
C1=C2/COCc3cc(ccc3OCCN3CCC(CSC2)C3)Nc2nccc(n2)-c2ccc(s2)COC/1

>  <max_ring_size>  (1) 
18

>  <has_macrocycle_12_20>  (1) 
True

>  <has_constrained_ring_8_11>  (1) 
False

>  <passes_basic_filters>  (1) 
True

>  <generation_notes>  (1) 
v5_3_model_guided_anchor_pair=1-16;anchor_scores=0.312,0.079;linker_length=3;target_ring=14;linker_prob=0.414;chemotype=thioether

$$$$
