CAND_b3c1e9c6e7
     RDKit          3D

 64 69  0  0  0  0  0  0  0  0999 V2000
   -2.9422    0.9140   -1.0703 O   0  0  0  0  0  0  0  0  0  0  0  0
   -3.6429    0.6413   -0.1041 C   0  0  0  0  0  0  0  0  0  0  0  0
   -4.3186    1.5506    0.6637 N   0  0  0  0  0  0  0  0  0  0  0  0
   -4.0883    2.9135    0.7852 C   0  0  0  0  0  0  0  0  0  0  0  0
   -5.0851    3.7137    1.3085 C   0  0  0  0  0  0  0  0  0  0  0  0
   -4.5784    4.9719    1.3829 N   0  0  0  0  0  0  0  0  0  0  0  0
   -3.3083    5.0545    0.9987 N   0  0  0  0  0  0  0  0  0  0  0  0
   -2.9790    3.8094    0.6077 C   0  0  0  0  0  0  0  0  0  0  0  0
   -1.4808    3.5511    0.1679 C   0  0  0  0  0  0  0  0  0  0  0  0
   -0.4915    4.4105    0.3621 N   0  0  0  0  0  0  0  0  0  0  0  0
    0.6570    3.7413    0.0188 C   0  0  0  0  0  0  0  0  0  0  0  0
    1.9987    4.1240    0.1340 C   0  0  0  0  0  0  0  0  0  0  0  0
    2.9919    3.2059   -0.2446 C   0  0  0  0  0  0  0  0  0  0  0  0
    2.6672    1.9423   -0.7745 C   0  0  0  0  0  0  0  0  0  0  0  0
    1.3198    1.5856   -0.9472 C   0  0  0  0  0  0  0  0  0  0  0  0
    0.3603    2.4922   -0.4997 C   0  0  0  0  0  0  0  0  0  0  0  0
   -1.0014    2.4184   -0.4251 N   0  0  0  0  0  0  0  0  0  0  0  0
    3.7689    0.9605   -1.1245 C   0  0  0  0  0  0  0  0  0  0  0  0
    3.8468   -0.1489   -0.1590 N   0  0  0  0  0  0  0  0  0  0  0  0
    5.2491   -0.4845    0.1507 C   0  0  0  0  0  0  0  0  0  0  0  0
    5.3608   -1.8023    0.9315 C   0  0  0  0  0  0  0  0  0  0  0  0
    4.8170   -2.9337    0.2383 O   0  0  0  0  0  0  0  0  0  0  0  0
    3.9886   -2.5626   -0.8665 C   0  0  0  0  0  0  0  0  0  0  0  0
    3.0685   -1.3507   -0.5684 C   0  0  0  0  0  0  0  0  0  0  0  0
    2.0180   -1.6470    0.5354 C   0  0  0  0  0  0  0  0  0  0  0  0
    1.0975   -2.8226    0.1827 C   0  0  0  0  0  0  0  0  0  0  0  0
   -0.0631   -3.0126    1.1659 C   0  0  0  0  0  0  0  0  0  0  0  0
   -1.2382   -2.0360    1.0197 C   0  0  0  0  0  0  0  0  0  0  0  0
   -1.8707   -2.0473   -0.3774 C   0  0  0  0  0  0  0  0  0  0  0  0
   -3.3798   -1.8220   -0.3572 C   0  0  0  0  0  0  0  0  0  0  0  0
   -4.1534   -2.2846   -1.5751 C   0  0  0  0  0  0  0  0  0  0  0  0
   -4.2542   -3.0608   -0.2983 C   0  0  0  0  0  0  0  0  0  0  0  0
   -3.8540   -0.6488    0.3339 N   0  0  0  0  0  0  0  0  0  0  0  0
   -5.1785    1.2150    1.0729 H   0  0  0  0  0  0  0  0  0  0  0  0
   -6.0961    3.5060    1.6266 H   0  0  0  0  0  0  0  0  0  0  0  0
   -5.0328    5.8188    1.7092 H   0  0  0  0  0  0  0  0  0  0  0  0
    2.2539    5.0941    0.5443 H   0  0  0  0  0  0  0  0  0  0  0  0
    4.0337    3.4885   -0.1079 H   0  0  0  0  0  0  0  0  0  0  0  0
    1.0282    0.6259   -1.3560 H   0  0  0  0  0  0  0  0  0  0  0  0
   -1.5681    1.6560   -0.7679 H   0  0  0  0  0  0  0  0  0  0  0  0
    4.7137    1.5218   -1.1340 H   0  0  0  0  0  0  0  0  0  0  0  0
    3.6469    0.6078   -2.1570 H   0  0  0  0  0  0  0  0  0  0  0  0
    5.6925    0.3215    0.7467 H   0  0  0  0  0  0  0  0  0  0  0  0
    5.8327   -0.5731   -0.7753 H   0  0  0  0  0  0  0  0  0  0  0  0
    4.8518   -1.7227    1.8985 H   0  0  0  0  0  0  0  0  0  0  0  0
    6.4125   -2.0232    1.1417 H   0  0  0  0  0  0  0  0  0  0  0  0
    4.6398   -2.3416   -1.7221 H   0  0  0  0  0  0  0  0  0  0  0  0
    3.4083   -3.4430   -1.1577 H   0  0  0  0  0  0  0  0  0  0  0  0
    2.5143   -1.1518   -1.4943 H   0  0  0  0  0  0  0  0  0  0  0  0
    1.4054   -0.7537    0.6990 H   0  0  0  0  0  0  0  0  0  0  0  0
    2.5119   -1.8586    1.4913 H   0  0  0  0  0  0  0  0  0  0  0  0
    0.7216   -2.7143   -0.8401 H   0  0  0  0  0  0  0  0  0  0  0  0
    1.6881   -3.7460    0.2029 H   0  0  0  0  0  0  0  0  0  0  0  0
   -0.4548   -4.0297    1.0336 H   0  0  0  0  0  0  0  0  0  0  0  0
    0.3159   -2.9633    2.1940 H   0  0  0  0  0  0  0  0  0  0  0  0
   -1.9879   -2.3118    1.7720 H   0  0  0  0  0  0  0  0  0  0  0  0
   -0.9170   -1.0172    1.2661 H   0  0  0  0  0  0  0  0  0  0  0  0
   -1.3946   -1.2799   -0.9995 H   0  0  0  0  0  0  0  0  0  0  0  0
   -1.6641   -3.0073   -0.8680 H   0  0  0  0  0  0  0  0  0  0  0  0
   -3.6038   -2.7231   -2.4006 H   0  0  0  0  0  0  0  0  0  0  0  0
   -5.0109   -1.7009   -1.8909 H   0  0  0  0  0  0  0  0  0  0  0  0
   -5.1922   -3.0161    0.2429 H   0  0  0  0  0  0  0  0  0  0  0  0
   -3.7780   -4.0344   -0.2592 H   0  0  0  0  0  0  0  0  0  0  0  0
   -4.2727   -0.7800    1.2441 H   0  0  0  0  0  0  0  0  0  0  0  0
  1  2  2  0
  2  3  1  0
  3  4  1  0
  4  5  2  0
  5  6  1  0
  6  7  1  0
  7  8  2  0
  8  9  1  0
  9 10  2  0
 10 11  1  0
 11 12  2  0
 12 13  1  0
 13 14  2  0
 14 15  1  0
 15 16  2  0
 16 17  1  0
 14 18  1  0
 18 19  1  0
 19 20  1  0
 20 21  1  0
 21 22  1  0
 22 23  1  0
 23 24  1  0
 24 25  1  0
 25 26  1  0
 26 27  1  0
 27 28  1  0
 28 29  1  0
 29 30  1  0
 30 31  1  0
 31 32  1  0
 30 33  1  0
 33  2  1  0
  8  4  1  0
 17  9  1  0
 24 19  1  0
 32 30  1  0
 16 11  1  0
  3 34  1  0
  5 35  1  0
  6 36  1  0
 12 37  1  0
 13 38  1  0
 15 39  1  0
 17 40  1  0
 18 41  1  0
 18 42  1  0
 20 43  1  0
 20 44  1  0
 21 45  1  0
 21 46  1  0
 23 47  1  0
 23 48  1  0
 24 49  1  0
 25 50  1  0
 25 51  1  0
 26 52  1  0
 26 53  1  0
 27 54  1  0
 27 55  1  0
 28 56  1  0
 28 57  1  0
 29 58  1  0
 29 59  1  0
 31 60  1  0
 31 61  1  0
 32 62  1  0
 32 63  1  0
 33 64  1  0
M  END
>  <candidate_id>  (1) 
CAND_b3c1e9c6e7

>  <source_generator>  (1) 
v5_3_model_guided_macrocycle

>  <parent_mol_id>  (1) 
JAK2_dbe7510318

>  <canonical_smiles>  (1) 
O=C1Nc2c[nH]nc2-c2nc3ccc(cc3[nH]2)CN2CCOCC2CCCCCC2(CC2)N1

>  <inchikey>  (1) 
JJOHDIRSSGIJTG-UHFFFAOYSA-N

>  <valid_rdkit>  (1) 
True

>  <unique_flag>  (1) 
True

>  <novel_flag>  (1) 
True

>  <mw>  (1) 
449.559

>  <logp>  (1) 
3.772

>  <tpsa>  (1) 
110.96

>  <hbd>  (1) 
4

>  <hba>  (1) 
5

>  <rotatable_bonds>  (1) 
0

>  <qed>  (1) 
0.4175

>  <sa_score>  (1) 
4.203

>  <murcko_scaffold>  (1) 
O=C1Nc2c[nH]nc2-c2nc3ccc(cc3[nH]2)CN2CCOCC2CCCCCC2(CC2)N1

>  <max_ring_size>  (1) 
19

>  <has_macrocycle_12_20>  (1) 
True

>  <has_constrained_ring_8_11>  (1) 
False

>  <passes_basic_filters>  (1) 
True

>  <generation_notes>  (1) 
v5_3_model_guided_anchor_pair=25-16;anchor_scores=0.691,0.079;linker_length=5;target_ring=18;linker_prob=0.200;chemotype=alkyl

$$$$
