CAND_5a164fb16c
     RDKit          3D

 55 60  0  0  0  0  0  0  0  0999 V2000
    6.8972   -0.5529   -3.4962 N   0  0  0  0  0  0  0  0  0  0  0  0
    6.3400   -0.3489   -2.4993 C   0  0  0  0  0  0  0  0  0  0  0  0
    5.6287   -0.0990   -1.2466 C   0  0  2  0  0  0  0  0  0  0  0  0
    5.9358   -1.1423   -0.1721 C   0  0  0  0  0  0  0  0  0  0  0  0
    4.7392   -1.0268    0.7586 C   0  0  0  0  0  0  0  0  0  0  0  0
    3.6356   -0.6796   -0.1168 N   0  0  0  0  0  0  0  0  0  0  0  0
    2.3310   -0.7096    0.3387 C   0  0  0  0  0  0  0  0  0  0  0  0
    2.0873   -1.0045    1.5131 O   0  0  0  0  0  0  0  0  0  0  0  0
    1.2020   -0.3734   -0.6737 C   0  0  2  0  0  0  0  0  0  0  0  0
    0.3522    0.6432   -0.0960 N   0  0  0  0  0  0  0  0  0  0  0  0
    0.7074    1.9657   -0.0232 C   0  0  0  0  0  0  0  0  0  0  0  0
    1.7916    2.3923   -0.4089 O   0  0  0  0  0  0  0  0  0  0  0  0
   -0.3217    2.8152    0.5564 C   0  0  0  0  0  0  0  0  0  0  0  0
   -0.1654    4.1200    1.0052 C   0  0  0  0  0  0  0  0  0  0  0  0
   -1.3710    4.5555    1.5070 N   0  0  0  0  0  0  0  0  0  0  0  0
   -2.3071    3.5687    1.3714 C   0  0  0  0  0  0  0  0  0  0  0  0
   -3.5976    3.6255    1.7477 N   0  0  0  0  0  0  0  0  0  0  0  0
   -4.2318    2.4522    1.4490 C   0  0  0  0  0  0  0  0  0  0  0  0
   -3.6652    1.3260    0.8222 C   0  0  0  0  0  0  0  0  0  0  0  0
   -2.3572    1.3484    0.4713 N   0  0  0  0  0  0  0  0  0  0  0  0
   -1.6862    2.4882    0.7687 C   0  0  0  0  0  0  0  0  0  0  0  0
   -4.4631    0.0473    0.4723 C   0  0  0  0  0  0  0  0  0  0  0  0
   -5.8999    0.2143   -0.0180 C   0  0  0  0  0  0  0  0  0  0  0  0
   -5.6453   -0.3769    1.3358 C   0  0  0  0  0  0  0  0  0  0  0  0
   -3.6508   -1.0615   -0.2009 C   0  0  0  0  0  0  0  0  0  0  0  0
   -2.6789   -1.9881    1.0263 S   0  0  0  0  0  0  0  0  0  0  0  0
   -1.6572   -2.9932   -0.0912 C   0  0  0  0  0  0  0  0  0  0  0  0
   -0.2424   -2.5068   -0.0335 C   0  0  0  0  0  0  0  0  0  0  0  0
    0.7610   -2.9698   -1.0680 C   0  0  0  0  0  0  0  0  0  0  0  0
    0.3049   -1.5309   -1.0611 C   0  0  0  0  0  0  0  0  0  0  0  0
    4.1155   -0.2216   -1.4139 C   0  0  0  0  0  0  0  0  0  0  0  0
    5.8748    0.8984   -0.8604 H   0  0  0  0  0  0  0  0  0  0  0  0
    6.8845   -0.9600    0.3422 H   0  0  0  0  0  0  0  0  0  0  0  0
    5.9771   -2.1508   -0.6043 H   0  0  0  0  0  0  0  0  0  0  0  0
    4.5327   -1.9520    1.3051 H   0  0  0  0  0  0  0  0  0  0  0  0
    4.8682   -0.2110    1.4787 H   0  0  0  0  0  0  0  0  0  0  0  0
    1.6205    0.0397   -1.5939 H   0  0  0  0  0  0  0  0  0  0  0  0
   -0.5346    0.3553    0.3122 H   0  0  0  0  0  0  0  0  0  0  0  0
    0.7069    4.7611    1.0220 H   0  0  0  0  0  0  0  0  0  0  0  0
   -1.5589    5.4593    1.9171 H   0  0  0  0  0  0  0  0  0  0  0  0
   -5.2790    2.4482    1.7377 H   0  0  0  0  0  0  0  0  0  0  0  0
   -6.3385    1.2042   -0.0721 H   0  0  0  0  0  0  0  0  0  0  0  0
   -6.2683   -0.4477   -0.7955 H   0  0  0  0  0  0  0  0  0  0  0  0
   -5.8973    0.2024    2.2161 H   0  0  0  0  0  0  0  0  0  0  0  0
   -5.8323   -1.4384    1.4691 H   0  0  0  0  0  0  0  0  0  0  0  0
   -2.9952   -0.6452   -0.9735 H   0  0  0  0  0  0  0  0  0  0  0  0
   -4.3176   -1.7764   -0.6961 H   0  0  0  0  0  0  0  0  0  0  0  0
   -1.6930   -4.0278    0.2648 H   0  0  0  0  0  0  0  0  0  0  0  0
   -2.0584   -2.9814   -1.1098 H   0  0  0  0  0  0  0  0  0  0  0  0
    0.1228   -2.4681    0.9891 H   0  0  0  0  0  0  0  0  0  0  0  0
    1.7570   -3.2184   -0.7181 H   0  0  0  0  0  0  0  0  0  0  0  0
    0.4161   -3.6062   -1.8760 H   0  0  0  0  0  0  0  0  0  0  0  0
   -0.3599   -1.2325   -1.8679 H   0  0  0  0  0  0  0  0  0  0  0  0
    3.6625    0.7385   -1.6782 H   0  0  0  0  0  0  0  0  0  0  0  0
    3.8215   -0.9680   -2.1611 H   0  0  0  0  0  0  0  0  0  0  0  0
  1  2  3  0
  2  3  1  0
  3  4  1  0
  4  5  1  0
  5  6  1  0
  6  7  1  0
  7  8  2  0
  7  9  1  0
  9 10  1  0
 10 11  1  0
 11 12  2  0
 11 13  1  0
 13 14  2  0
 14 15  1  0
 15 16  1  0
 16 17  2  0
 17 18  1  0
 18 19  2  0
 19 20  1  0
 20 21  2  0
 19 22  1  0
 22 23  1  0
 23 24  1  0
 22 25  1  0
 25 26  1  0
 26 27  1  0
 27 28  1  0
 28 29  1  0
 29 30  1  0
  6 31  1  0
 31  3  1  0
 30  9  1  0
 21 13  1  0
 24 22  1  0
 30 28  1  0
 21 16  1  0
  3 32  1  1
  4 33  1  0
  4 34  1  0
  5 35  1  0
  5 36  1  0
  9 37  1  6
 10 38  1  0
 14 39  1  0
 15 40  1  0
 18 41  1  0
 23 42  1  0
 23 43  1  0
 24 44  1  0
 24 45  1  0
 25 46  1  0
 25 47  1  0
 27 48  1  0
 27 49  1  0
 28 50  1  0
 29 51  1  0
 29 52  1  0
 30 53  1  0
 31 54  1  0
 31 55  1  0
M  END
>  <candidate_id>  (1) 
CAND_5a164fb16c

>  <source_generator>  (1) 
v5_3_model_guided_macrocycle

>  <parent_mol_id>  (1) 
JAK2_69b6c7ad6e

>  <canonical_smiles>  (1) 
N#C[C@@H]1CCN(C(=O)[C@@H]2NC(=O)c3c[nH]c4ncc(nc34)C3(CC3)CSCC3CC32)C1

>  <inchikey>  (1) 
SPVWFDQKMXQKBE-SEBUGHOLSA-N

>  <valid_rdkit>  (1) 
True

>  <unique_flag>  (1) 
True

>  <novel_flag>  (1) 
True

>  <mw>  (1) 
436.541

>  <logp>  (1) 
1.8429

>  <tpsa>  (1) 
114.77

>  <hbd>  (1) 
2

>  <hba>  (1) 
6

>  <rotatable_bonds>  (1) 
1

>  <qed>  (1) 
0.705

>  <sa_score>  (1) 
5.006

>  <murcko_scaffold>  (1) 
O=C1N[C@@H](C(=O)N2CCCC2)C2CC2CSCC2(CC2)c2cnc3[nH]cc1c3n2

>  <max_ring_size>  (1) 
13

>  <has_macrocycle_12_20>  (1) 
True

>  <has_constrained_ring_8_11>  (1) 
False

>  <passes_basic_filters>  (1) 
True

>  <generation_notes>  (1) 
v5_3_model_guided_anchor_pair=19-25;anchor_scores=0.691,0.079;linker_length=3;target_ring=12;linker_prob=0.278;chemotype=thioether

$$$$
