CAND_bfdc82a98a
     RDKit          3D

 58 63  0  0  0  0  0  0  0  0999 V2000
   -2.3891    4.7740   -2.5865 N   0  0  0  0  0  0  0  0  0  0  0  0
   -2.8414    3.7749   -2.2080 C   0  0  0  0  0  0  0  0  0  0  0  0
   -3.3992    2.5326   -1.7336 C   0  0  0  0  0  0  0  0  0  0  0  0
   -3.0560    1.2908   -2.5731 C   0  0  0  0  0  0  0  0  0  0  0  0
   -2.7108    0.6451   -1.3207 N   0  0  0  0  0  0  0  0  0  0  0  0
   -2.5766   -0.6864   -1.0386 C   0  0  0  0  0  0  0  0  0  0  0  0
   -2.8471   -1.5275   -1.8995 O   0  0  0  0  0  0  0  0  0  0  0  0
   -2.2286   -1.0769    0.4248 C   0  0  2  0  0  0  0  0  0  0  0  0
   -1.2133   -0.2146    1.0002 N   0  0  0  0  0  0  0  0  0  0  0  0
   -1.3399    0.4169    2.2133 C   0  0  0  0  0  0  0  0  0  0  0  0
   -2.3417    0.3406    2.9149 O   0  0  0  0  0  0  0  0  0  0  0  0
   -0.1766    1.2073    2.5904 C   0  0  0  0  0  0  0  0  0  0  0  0
   -0.0084    1.9081    3.7777 C   0  0  0  0  0  0  0  0  0  0  0  0
    1.2377    2.4922    3.7697 N   0  0  0  0  0  0  0  0  0  0  0  0
    1.8800    2.1798    2.6047 C   0  0  0  0  0  0  0  0  0  0  0  0
    3.1282    2.5393    2.2544 N   0  0  0  0  0  0  0  0  0  0  0  0
    3.4510    2.0252    1.0326 C   0  0  0  0  0  0  0  0  0  0  0  0
    2.6131    1.2507    0.2135 C   0  0  0  0  0  0  0  0  0  0  0  0
    1.3519    0.9452    0.6169 N   0  0  0  0  0  0  0  0  0  0  0  0
    1.0141    1.4096    1.8464 C   0  0  0  0  0  0  0  0  0  0  0  0
    3.0475    0.6510   -1.1311 C   0  0  0  0  0  0  0  0  0  0  0  0
    2.5528   -0.7794   -1.3675 C   0  0  0  0  0  0  0  0  0  0  0  0
    3.1316   -1.7701   -0.3566 C   0  0  0  0  0  0  0  0  0  0  0  0
    2.2325   -3.3580   -0.3698 S   0  0  0  0  0  0  0  0  0  0  0  0
    0.7663   -2.9026    0.6319 C   0  0  0  0  0  0  0  0  0  0  0  0
   -0.5144   -2.9428   -0.2070 C   0  0  0  0  0  0  0  0  0  0  0  0
   -1.7714   -2.5379    0.5745 C   0  0  0  0  0  0  0  0  0  0  0  0
   -2.0675   -3.2387    1.8951 C   0  0  0  0  0  0  0  0  0  0  0  0
   -2.8742   -3.5828    0.6836 C   0  0  0  0  0  0  0  0  0  0  0  0
    2.9899    1.5839   -2.3329 C   0  0  0  0  0  0  0  0  0  0  0  0
    4.3155    1.0813   -1.8465 C   0  0  0  0  0  0  0  0  0  0  0  0
   -2.6435    1.8750   -0.5638 C   0  0  0  0  0  0  0  0  0  0  0  0
   -4.4774    2.6085   -1.5349 H   0  0  0  0  0  0  0  0  0  0  0  0
   -2.1982    1.3699   -3.2485 H   0  0  0  0  0  0  0  0  0  0  0  0
   -3.9038    0.8357   -3.0921 H   0  0  0  0  0  0  0  0  0  0  0  0
   -3.1605   -0.9318    0.9872 H   0  0  0  0  0  0  0  0  0  0  0  0
   -0.3603   -0.0613    0.4675 H   0  0  0  0  0  0  0  0  0  0  0  0
   -0.6687    2.0236    4.6284 H   0  0  0  0  0  0  0  0  0  0  0  0
    1.6436    3.0512    4.5073 H   0  0  0  0  0  0  0  0  0  0  0  0
    4.4633    2.2613    0.7197 H   0  0  0  0  0  0  0  0  0  0  0  0
    2.8190   -1.1088   -2.3809 H   0  0  0  0  0  0  0  0  0  0  0  0
    1.4568   -0.7695   -1.3336 H   0  0  0  0  0  0  0  0  0  0  0  0
    3.1360   -1.3817    0.6661 H   0  0  0  0  0  0  0  0  0  0  0  0
    4.1773   -1.9738   -0.6125 H   0  0  0  0  0  0  0  0  0  0  0  0
    0.7074   -3.6318    1.4455 H   0  0  0  0  0  0  0  0  0  0  0  0
    0.9106   -1.9248    1.0965 H   0  0  0  0  0  0  0  0  0  0  0  0
   -0.6488   -3.9573   -0.6044 H   0  0  0  0  0  0  0  0  0  0  0  0
   -0.4035   -2.2911   -1.0807 H   0  0  0  0  0  0  0  0  0  0  0  0
   -2.5514   -2.6717    2.6848 H   0  0  0  0  0  0  0  0  0  0  0  0
   -1.3933   -4.0002    2.2697 H   0  0  0  0  0  0  0  0  0  0  0  0
   -2.7226   -4.5568    0.2301 H   0  0  0  0  0  0  0  0  0  0  0  0
   -3.9091   -3.2579    0.6500 H   0  0  0  0  0  0  0  0  0  0  0  0
    2.6118    1.1981   -3.2738 H   0  0  0  0  0  0  0  0  0  0  0  0
    2.7522    2.6308   -2.1731 H   0  0  0  0  0  0  0  0  0  0  0  0
    4.8340    0.3534   -2.4638 H   0  0  0  0  0  0  0  0  0  0  0  0
    4.9882    1.8070   -1.4065 H   0  0  0  0  0  0  0  0  0  0  0  0
   -3.1987    1.8580    0.3774 H   0  0  0  0  0  0  0  0  0  0  0  0
   -1.6166    2.2152   -0.3985 H   0  0  0  0  0  0  0  0  0  0  0  0
  1  2  3  0
  2  3  1  0
  3  4  1  0
  4  5  1  0
  5  6  1  0
  6  7  2  0
  6  8  1  0
  8  9  1  0
  9 10  1  0
 10 11  2  0
 10 12  1  0
 12 13  2  0
 13 14  1  0
 14 15  1  0
 15 16  2  0
 16 17  1  0
 17 18  2  0
 18 19  1  0
 19 20  2  0
 18 21  1  0
 21 22  1  0
 22 23  1  0
 23 24  1  0
 24 25  1  0
 25 26  1  0
 26 27  1  0
 27 28  1  0
 28 29  1  0
 21 30  1  0
 30 31  1  0
  5 32  1  0
 32  3  1  0
 27  8  1  0
 20 12  1  0
 31 21  1  0
 20 15  1  0
 29 27  1  0
  3 33  1  0
  4 34  1  0
  4 35  1  0
  8 36  1  1
  9 37  1  0
 13 38  1  0
 14 39  1  0
 17 40  1  0
 22 41  1  0
 22 42  1  0
 23 43  1  0
 23 44  1  0
 25 45  1  0
 25 46  1  0
 26 47  1  0
 26 48  1  0
 28 49  1  0
 28 50  1  0
 29 51  1  0
 29 52  1  0
 30 53  1  0
 30 54  1  0
 31 55  1  0
 31 56  1  0
 32 57  1  0
 32 58  1  0
M  END
>  <candidate_id>  (1) 
CAND_bfdc82a98a

>  <source_generator>  (1) 
v5_3_model_guided_macrocycle

>  <parent_mol_id>  (1) 
JAK2_c385760536

>  <canonical_smiles>  (1) 
N#CC1CN(C(=O)[C@@H]2NC(=O)c3c[nH]c4ncc(nc34)C3(CCSCCC24CC4)CC3)C1

>  <inchikey>  (1) 
UVCZPUKWYHMMSS-SFHVURJKSA-N

>  <valid_rdkit>  (1) 
True

>  <unique_flag>  (1) 
True

>  <novel_flag>  (1) 
True

>  <mw>  (1) 
450.568

>  <logp>  (1) 
2.3771

>  <tpsa>  (1) 
114.77

>  <hbd>  (1) 
2

>  <hba>  (1) 
6

>  <rotatable_bonds>  (1) 
1

>  <qed>  (1) 
0.6894

>  <sa_score>  (1) 
4.334

>  <murcko_scaffold>  (1) 
O=C1N[C@@H](C(=O)N2CCC2)C2(CCSCCC3(CC3)c3cnc4[nH]cc1c4n3)CC2

>  <max_ring_size>  (1) 
14

>  <has_macrocycle_12_20>  (1) 
True

>  <has_constrained_ring_8_11>  (1) 
False

>  <passes_basic_filters>  (1) 
True

>  <generation_notes>  (1) 
v5_3_model_guided_anchor_pair=18-23;anchor_scores=0.691,0.691;linker_length=5;target_ring=13;linker_prob=0.225;chemotype=thioether

$$$$
