CAND_6cb1768675
     RDKit          3D

 59 64  0  0  0  0  0  0  0  0999 V2000
   -5.5032    2.4769    3.5812 N   0  0  0  0  0  0  0  0  0  0  0  0
   -5.1550    2.1453    2.5253 C   0  0  0  0  0  0  0  0  0  0  0  0
   -4.7095    1.7372    1.2163 C   0  0  0  0  0  0  0  0  0  0  0  0
   -3.2705    1.1924    1.1521 C   0  0  0  0  0  0  0  0  0  0  0  0
   -3.8083    0.0933    0.3832 N   0  0  0  0  0  0  0  0  0  0  0  0
   -3.2959   -0.9962   -0.2746 C   0  0  0  0  0  0  0  0  0  0  0  0
   -4.0636   -1.9119   -0.5839 O   0  0  0  0  0  0  0  0  0  0  0  0
   -1.7467   -1.1246   -0.3570 C   0  0  2  0  0  0  0  0  0  0  0  0
   -0.9729    0.0970   -0.5068 N   0  0  0  0  0  0  0  0  0  0  0  0
   -1.1713    1.0188   -1.5056 C   0  0  0  0  0  0  0  0  0  0  0  0
   -2.1659    1.0401   -2.2209 O   0  0  0  0  0  0  0  0  0  0  0  0
   -0.1025    1.9998   -1.6245 C   0  0  0  0  0  0  0  0  0  0  0  0
   -0.0710    3.0637   -2.5172 C   0  0  0  0  0  0  0  0  0  0  0  0
    1.1220    3.7292   -2.3634 N   0  0  0  0  0  0  0  0  0  0  0  0
    1.8681    3.1103   -1.4008 C   0  0  0  0  0  0  0  0  0  0  0  0
    3.1133    3.4480   -1.0193 N   0  0  0  0  0  0  0  0  0  0  0  0
    3.5733    2.5803   -0.0757 C   0  0  0  0  0  0  0  0  0  0  0  0
    2.8562    1.5072    0.4800 C   0  0  0  0  0  0  0  0  0  0  0  0
    1.5834    1.2411    0.0842 N   0  0  0  0  0  0  0  0  0  0  0  0
    1.1189    2.0553   -0.9018 C   0  0  0  0  0  0  0  0  0  0  0  0
    3.4866    0.5384    1.4805 C   0  0  0  0  0  0  0  0  0  0  0  0
    3.7023   -0.8632    0.9138 C   0  0  0  0  0  0  0  0  0  0  0  0
    2.5218   -1.8084    1.1965 C   0  0  0  0  0  0  0  0  0  0  0  0
    2.4103   -2.8409    0.1604 N   0  0  0  0  0  0  0  0  0  0  0  0
    1.4193   -2.4702   -0.8626 C   0  0  0  0  0  0  0  0  0  0  0  0
    0.0142   -3.0031   -0.5280 C   0  0  0  0  0  0  0  0  0  0  0  0
   -1.1194   -2.2433   -1.2327 C   0  0  0  0  0  0  0  0  0  0  0  0
   -0.9955   -2.0368   -2.7429 C   0  0  0  0  0  0  0  0  0  0  0  0
   -1.9503   -3.0563   -2.2252 C   0  0  0  0  0  0  0  0  0  0  0  0
    3.0918    0.6735    2.9462 C   0  0  0  0  0  0  0  0  0  0  0  0
    4.4746    1.0499    2.5215 C   0  0  0  0  0  0  0  0  0  0  0  0
   -5.1893    0.3553    0.7506 C   0  0  0  0  0  0  0  0  0  0  0  0
   -4.8896    2.5101    0.4560 H   0  0  0  0  0  0  0  0  0  0  0  0
   -2.8245    0.8626    2.0959 H   0  0  0  0  0  0  0  0  0  0  0  0
   -2.5843    1.8566    0.6257 H   0  0  0  0  0  0  0  0  0  0  0  0
   -1.5257   -1.4073    0.6830 H   0  0  0  0  0  0  0  0  0  0  0  0
   -0.1028    0.1640    0.0156 H   0  0  0  0  0  0  0  0  0  0  0  0
   -0.7934    3.3840   -3.2579 H   0  0  0  0  0  0  0  0  0  0  0  0
    1.4354    4.5307   -2.8928 H   0  0  0  0  0  0  0  0  0  0  0  0
    4.5981    2.7686    0.2324 H   0  0  0  0  0  0  0  0  0  0  0  0
    3.8761   -0.7770   -0.1674 H   0  0  0  0  0  0  0  0  0  0  0  0
    4.6192   -1.3069    1.3227 H   0  0  0  0  0  0  0  0  0  0  0  0
    2.7132   -2.3064    2.1552 H   0  0  0  0  0  0  0  0  0  0  0  0
    1.5762   -1.2696    1.3298 H   0  0  0  0  0  0  0  0  0  0  0  0
    2.1381   -3.7281    0.5838 H   0  0  0  0  0  0  0  0  0  0  0  0
    1.4178   -1.3894   -1.0386 H   0  0  0  0  0  0  0  0  0  0  0  0
    1.7408   -2.9228   -1.8080 H   0  0  0  0  0  0  0  0  0  0  0  0
   -0.0251   -4.0684   -0.7910 H   0  0  0  0  0  0  0  0  0  0  0  0
   -0.1541   -2.9743    0.5554 H   0  0  0  0  0  0  0  0  0  0  0  0
   -0.1170   -2.3978   -3.2658 H   0  0  0  0  0  0  0  0  0  0  0  0
   -1.4355   -1.1652   -3.2143 H   0  0  0  0  0  0  0  0  0  0  0  0
   -1.7087   -4.1027   -2.3821 H   0  0  0  0  0  0  0  0  0  0  0  0
   -3.0010   -2.8529   -2.3939 H   0  0  0  0  0  0  0  0  0  0  0  0
    2.9815   -0.2183    3.5527 H   0  0  0  0  0  0  0  0  0  0  0  0
    2.4096    1.4703    3.2253 H   0  0  0  0  0  0  0  0  0  0  0  0
    5.2903    0.4030    2.8283 H   0  0  0  0  0  0  0  0  0  0  0  0
    4.7306    2.1029    2.5625 H   0  0  0  0  0  0  0  0  0  0  0  0
   -5.5524   -0.3291    1.5241 H   0  0  0  0  0  0  0  0  0  0  0  0
   -5.8780    0.3655   -0.0984 H   0  0  0  0  0  0  0  0  0  0  0  0
  1  2  3  0
  2  3  1  0
  3  4  1  0
  4  5  1  0
  5  6  1  0
  6  7  2  0
  6  8  1  0
  8  9  1  0
  9 10  1  0
 10 11  2  0
 10 12  1  0
 12 13  2  0
 13 14  1  0
 14 15  1  0
 15 16  2  0
 16 17  1  0
 17 18  2  0
 18 19  1  0
 19 20  2  0
 18 21  1  0
 21 22  1  0
 22 23  1  0
 23 24  1  0
 24 25  1  0
 25 26  1  0
 26 27  1  0
 27 28  1  0
 28 29  1  0
 21 30  1  0
 30 31  1  0
  5 32  1  0
 32  3  1  0
 27  8  1  0
 20 12  1  0
 31 21  1  0
 20 15  1  0
 29 27  1  0
  3 33  1  0
  4 34  1  0
  4 35  1  0
  8 36  1  1
  9 37  1  0
 13 38  1  0
 14 39  1  0
 17 40  1  0
 22 41  1  0
 22 42  1  0
 23 43  1  0
 23 44  1  0
 24 45  1  0
 25 46  1  0
 25 47  1  0
 26 48  1  0
 26 49  1  0
 28 50  1  0
 28 51  1  0
 29 52  1  0
 29 53  1  0
 30 54  1  0
 30 55  1  0
 31 56  1  0
 31 57  1  0
 32 58  1  0
 32 59  1  0
M  END
>  <candidate_id>  (1) 
CAND_6cb1768675

>  <source_generator>  (1) 
v5_3_model_guided_macrocycle

>  <parent_mol_id>  (1) 
JAK2_c385760536

>  <canonical_smiles>  (1) 
N#CC1CN(C(=O)[C@@H]2NC(=O)c3c[nH]c4ncc(nc34)C3(CCNCCC24CC4)CC3)C1

>  <inchikey>  (1) 
IWUSFZCWAOXRAT-SFHVURJKSA-N

>  <valid_rdkit>  (1) 
True

>  <unique_flag>  (1) 
True

>  <novel_flag>  (1) 
True

>  <mw>  (1) 
433.516

>  <logp>  (1) 
1.2335

>  <tpsa>  (1) 
126.8

>  <hbd>  (1) 
3

>  <hba>  (1) 
6

>  <rotatable_bonds>  (1) 
1

>  <qed>  (1) 
0.6209

>  <sa_score>  (1) 
4.239

>  <murcko_scaffold>  (1) 
O=C1N[C@@H](C(=O)N2CCC2)C2(CCNCCC3(CC3)c3cnc4[nH]cc1c4n3)CC2

>  <max_ring_size>  (1) 
14

>  <has_macrocycle_12_20>  (1) 
True

>  <has_constrained_ring_8_11>  (1) 
False

>  <passes_basic_filters>  (1) 
True

>  <generation_notes>  (1) 
v5_3_model_guided_anchor_pair=18-23;anchor_scores=0.691,0.691;linker_length=5;target_ring=13;linker_prob=0.225;chemotype=aza

$$$$
