CAND_5abda62ff8
     RDKit          3D

 75 80  0  0  0  0  0  0  0  0999 V2000
    7.2589   -0.6508   -1.2406 C   0  0  0  0  0  0  0  0  0  0  0  0
    5.9146   -1.2585   -1.4793 C   0  0  0  0  0  0  0  0  0  0  0  0
    5.7522   -2.2778   -2.3958 C   0  0  0  0  0  0  0  0  0  0  0  0
    4.5781   -2.8819   -2.6659 N   0  0  0  0  0  0  0  0  0  0  0  0
    3.5033   -2.4486   -1.9948 C   0  0  0  0  0  0  0  0  0  0  0  0
    3.5629   -1.4701   -1.0807 N   0  0  0  0  0  0  0  0  0  0  0  0
    4.7575   -0.8966   -0.8090 C   0  0  0  0  0  0  0  0  0  0  0  0
    4.6899    0.1158    0.2593 C   0  0  0  0  0  0  0  0  0  0  0  0
    5.4499    0.0021    1.4344 C   0  0  0  0  0  0  0  0  0  0  0  0
    5.3387    0.9428    2.4602 C   0  0  0  0  0  0  0  0  0  0  0  0
    4.4492    2.0078    2.3372 C   0  0  0  0  0  0  0  0  0  0  0  0
    3.6610    2.1406    1.1892 C   0  0  0  0  0  0  0  0  0  0  0  0
    3.7995    1.1981    0.1549 C   0  0  0  0  0  0  0  0  0  0  0  0
    2.6618    3.2701    1.0797 C   0  0  0  0  0  0  0  0  0  0  0  0
    1.7576    3.2747    2.1865 O   0  0  0  0  0  0  0  0  0  0  0  0
    0.7195    2.2994    2.0688 C   0  0  0  0  0  0  0  0  0  0  0  0
   -0.4973    2.9659    1.4994 C   0  0  0  0  0  0  0  0  0  0  0  0
   -1.1280    2.7323    0.3261 C   0  0  0  0  0  0  0  0  0  0  0  0
   -0.6518    1.7266   -0.6987 C   0  0  0  0  0  0  0  0  0  0  0  0
   -1.4529    0.5506   -0.6894 O   0  0  0  0  0  0  0  0  0  0  0  0
   -1.0362   -0.4514    0.2323 C   0  0  0  0  0  0  0  0  0  0  0  0
   -0.6947   -1.7042   -0.5247 C   0  0  0  0  0  0  0  0  0  0  0  0
    0.5880   -1.8137   -1.0928 C   0  0  0  0  0  0  0  0  0  0  0  0
    1.0070   -2.9551   -1.7810 C   0  0  0  0  0  0  0  0  0  0  0  0
    0.0889   -4.0040   -1.9085 C   0  0  0  0  0  0  0  0  0  0  0  0
   -1.1969   -3.9119   -1.3618 C   0  0  0  0  0  0  0  0  0  0  0  0
   -1.5920   -2.7601   -0.6847 C   0  0  0  0  0  0  0  0  0  0  0  0
   -2.8148   -2.7136   -0.0715 O   0  0  0  0  0  0  0  0  0  0  0  0
   -3.9096   -2.6710   -1.0023 C   0  0  0  0  0  0  0  0  0  0  0  0
   -4.4995   -1.2517   -1.0897 C   0  0  0  0  0  0  0  0  0  0  0  0
   -5.5377   -0.9191   -0.0934 N   0  0  0  0  0  0  0  0  0  0  0  0
   -5.1031   -1.0647    1.3031 C   0  0  0  0  0  0  0  0  0  0  0  0
   -5.6497    0.1594    2.0308 C   0  0  0  0  0  0  0  0  0  0  0  0
   -5.5731    1.2558    0.9675 C   0  0  0  0  0  0  0  0  0  0  0  0
   -4.1587    1.8724    0.9355 C   0  0  0  0  0  0  0  0  0  0  0  0
   -3.8294    2.8839   -0.5427 S   0  0  0  0  0  0  0  0  0  0  0  0
   -2.2568    3.6569   -0.0851 C   0  0  0  0  0  0  0  0  0  0  0  0
   -6.0033    0.4697   -0.2720 C   0  0  0  0  0  0  0  0  0  0  0  0
    2.3102   -3.1189   -2.2618 N   0  0  0  0  0  0  0  0  0  0  0  0
    7.9209   -0.8081   -2.0968 H   0  0  0  0  0  0  0  0  0  0  0  0
    7.7307   -1.0979   -0.3621 H   0  0  0  0  0  0  0  0  0  0  0  0
    7.1836    0.4298   -1.0981 H   0  0  0  0  0  0  0  0  0  0  0  0
    6.5955   -2.6649   -2.9643 H   0  0  0  0  0  0  0  0  0  0  0  0
    6.1164   -0.8432    1.5756 H   0  0  0  0  0  0  0  0  0  0  0  0
    5.9293    0.8326    3.3660 H   0  0  0  0  0  0  0  0  0  0  0  0
    4.3513    2.7236    3.1511 H   0  0  0  0  0  0  0  0  0  0  0  0
    3.1869    1.2854   -0.7418 H   0  0  0  0  0  0  0  0  0  0  0  0
    3.2090    4.2180    1.0924 H   0  0  0  0  0  0  0  0  0  0  0  0
    2.1059    3.2399    0.1321 H   0  0  0  0  0  0  0  0  0  0  0  0
    1.0500    1.4322    1.5043 H   0  0  0  0  0  0  0  0  0  0  0  0
    0.4875    1.9503    3.0772 H   0  0  0  0  0  0  0  0  0  0  0  0
   -0.8735    3.7586    2.1431 H   0  0  0  0  0  0  0  0  0  0  0  0
   -0.7463    2.1732   -1.6989 H   0  0  0  0  0  0  0  0  0  0  0  0
    0.4093    1.4781   -0.5947 H   0  0  0  0  0  0  0  0  0  0  0  0
   -1.8454   -0.6315    0.9446 H   0  0  0  0  0  0  0  0  0  0  0  0
   -0.1713   -0.1440    0.8273 H   0  0  0  0  0  0  0  0  0  0  0  0
    1.2663   -0.9741   -0.9743 H   0  0  0  0  0  0  0  0  0  0  0  0
    0.3771   -4.9239   -2.4070 H   0  0  0  0  0  0  0  0  0  0  0  0
   -1.8732   -4.7555   -1.4406 H   0  0  0  0  0  0  0  0  0  0  0  0
   -3.6094   -2.9920   -2.0082 H   0  0  0  0  0  0  0  0  0  0  0  0
   -4.6691   -3.3837   -0.6608 H   0  0  0  0  0  0  0  0  0  0  0  0
   -4.9676   -1.1657   -2.0781 H   0  0  0  0  0  0  0  0  0  0  0  0
   -3.6915   -0.5171   -1.0478 H   0  0  0  0  0  0  0  0  0  0  0  0
   -4.0160   -1.0699    1.4080 H   0  0  0  0  0  0  0  0  0  0  0  0
   -5.4872   -1.9930    1.7363 H   0  0  0  0  0  0  0  0  0  0  0  0
   -6.6953   -0.0092    2.3204 H   0  0  0  0  0  0  0  0  0  0  0  0
   -5.0797    0.3944    2.9366 H   0  0  0  0  0  0  0  0  0  0  0  0
   -6.2994    2.0493    1.1871 H   0  0  0  0  0  0  0  0  0  0  0  0
   -3.3983    1.0939    0.9887 H   0  0  0  0  0  0  0  0  0  0  0  0
   -4.0367    2.5044    1.8222 H   0  0  0  0  0  0  0  0  0  0  0  0
   -1.9179    4.2407   -0.9500 H   0  0  0  0  0  0  0  0  0  0  0  0
   -2.4764    4.3873    0.6992 H   0  0  0  0  0  0  0  0  0  0  0  0
   -7.1017    0.4327   -0.2941 H   0  0  0  0  0  0  0  0  0  0  0  0
   -5.7057    0.9202   -1.2237 H   0  0  0  0  0  0  0  0  0  0  0  0
    2.4787   -3.8720   -2.9096 H   0  0  0  0  0  0  0  0  0  0  0  0
  1  2  1  0
  2  3  2  0
  3  4  1  0
  4  5  2  0
  5  6  1  0
  6  7  2  0
  7  8  1  0
  8  9  2  0
  9 10  1  0
 10 11  2  0
 11 12  1  0
 12 13  2  0
 12 14  1  0
 14 15  1  0
 15 16  1  0
 16 17  1  0
 17 18  2  3
 18 19  1  0
 19 20  1  0
 20 21  1  0
 21 22  1  0
 22 23  2  0
 23 24  1  0
 24 25  2  0
 25 26  1  0
 26 27  2  0
 27 28  1  0
 28 29  1  0
 29 30  1  0
 30 31  1  0
 31 32  1  0
 32 33  1  0
 33 34  1  0
 34 35  1  0
 35 36  1  0
 36 37  1  0
 34 38  1  0
 24 39  1  0
  7  2  1  0
 13  8  1  0
 37 18  1  0
 39  5  1  0
 27 22  1  0
 38 31  1  0
  1 40  1  0
  1 41  1  0
  1 42  1  0
  3 43  1  0
  9 44  1  0
 10 45  1  0
 11 46  1  0
 13 47  1  0
 14 48  1  0
 14 49  1  0
 16 50  1  0
 16 51  1  0
 17 52  1  0
 19 53  1  0
 19 54  1  0
 21 55  1  0
 21 56  1  0
 23 57  1  0
 25 58  1  0
 26 59  1  0
 29 60  1  0
 29 61  1  0
 30 62  1  0
 30 63  1  0
 32 64  1  0
 32 65  1  0
 33 66  1  0
 33 67  1  0
 34 68  1  0
 35 69  1  0
 35 70  1  0
 37 71  1  0
 37 72  1  0
 38 73  1  0
 38 74  1  0
 39 75  1  0
M  END
>  <candidate_id>  (1) 
CAND_5abda62ff8

>  <source_generator>  (1) 
v5_3_model_guided_macrocycle

>  <parent_mol_id>  (1) 
JAK2_5e05d7987e

>  <canonical_smiles>  (1) 
Cc1cnc2nc1-c1cccc(c1)COCC=C1COCc3cc(ccc3OCCN3CCC(CSC1)C3)N2

>  <inchikey>  (1) 
UMHBGPJTAUBEGU-UHFFFAOYSA-N

>  <valid_rdkit>  (1) 
True

>  <unique_flag>  (1) 
True

>  <novel_flag>  (1) 
True

>  <mw>  (1) 
544.721

>  <logp>  (1) 
5.6163

>  <tpsa>  (1) 
68.74

>  <hbd>  (1) 
1

>  <hba>  (1) 
8

>  <rotatable_bonds>  (1) 
0

>  <qed>  (1) 
0.3662

>  <sa_score>  (1) 
5.29

>  <murcko_scaffold>  (1) 
C1=C2COCc3cc(ccc3OCCN3CCC(CSC2)C3)Nc2nccc(n2)-c2cccc(c2)COC1

>  <max_ring_size>  (1) 
18

>  <has_macrocycle_12_20>  (1) 
True

>  <has_constrained_ring_8_11>  (1) 
False

>  <passes_basic_filters>  (1) 
True

>  <generation_notes>  (1) 
v5_3_model_guided_anchor_pair=17-32;anchor_scores=0.312,0.079;linker_length=3;target_ring=14;linker_prob=0.523;chemotype=thioether

$$$$
