CAND_7f998a5652
     RDKit          3D

 66 70  0  0  0  0  0  0  0  0999 V2000
   -4.0070   -0.1382    2.6262 C   0  0  0  0  0  0  0  0  0  0  0  0
   -2.8945    0.4291    1.7191 C   0  0  0  0  0  0  0  0  0  0  0  0
   -3.1251    1.9541    1.6071 C   0  0  0  0  0  0  0  0  0  0  0  0
   -1.5431    0.1972    2.4141 C   0  0  0  0  0  0  0  0  0  0  0  0
   -2.9695   -0.2163    0.2950 C   0  0  1  0  0  0  0  0  0  0  0  0
   -2.0555    0.4188   -0.6534 N   0  0  0  0  0  0  0  0  0  0  0  0
   -2.3406    0.4740   -1.9992 C   0  0  0  0  0  0  0  0  0  0  0  0
   -3.3672    0.0068   -2.4803 O   0  0  0  0  0  0  0  0  0  0  0  0
   -1.3237    1.1154   -2.8190 C   0  0  0  0  0  0  0  0  0  0  0  0
   -1.4156    1.2812   -4.1965 C   0  0  0  0  0  0  0  0  0  0  0  0
   -0.2792    1.9054   -4.6429 N   0  0  0  0  0  0  0  0  0  0  0  0
    0.5504    2.1470   -3.5863 C   0  0  0  0  0  0  0  0  0  0  0  0
    1.7592    2.7345   -3.6561 N   0  0  0  0  0  0  0  0  0  0  0  0
    2.3243    2.8097   -2.4243 C   0  0  0  0  0  0  0  0  0  0  0  0
    1.7486    2.3527   -1.2287 C   0  0  0  0  0  0  0  0  0  0  0  0
    0.5177    1.7656   -1.2122 N   0  0  0  0  0  0  0  0  0  0  0  0
   -0.0721    1.6727   -2.4370 C   0  0  0  0  0  0  0  0  0  0  0  0
    2.5044    2.4671    0.0938 C   0  0  0  0  0  0  0  0  0  0  0  0
    3.4148    1.2907    0.4268 C   0  0  0  0  0  0  0  0  0  0  0  0
    2.6153    0.0018    0.5955 C   0  0  0  0  0  0  0  0  0  0  0  0
    3.4239   -1.1467    1.1820 C   0  0  0  0  0  0  0  0  0  0  0  0
    2.5312   -2.2383    1.4112 O   0  0  0  0  0  0  0  0  0  0  0  0
    2.5343   -3.2156    0.3710 C   0  0  0  0  0  0  0  0  0  0  0  0
    1.2282   -4.0084    0.4746 C   0  0  0  0  0  0  0  0  0  0  0  0
    0.1093   -3.3797   -0.3774 C   0  0  0  0  0  0  0  0  0  0  0  0
    0.3478   -3.6070   -1.7965 C   0  0  0  0  0  0  0  0  0  0  0  0
    0.5860   -3.7898   -2.9172 N   0  0  0  0  0  0  0  0  0  0  0  0
   -0.2763   -1.9155   -0.0501 C   0  0  0  0  0  0  0  0  0  0  0  0
   -1.6394   -2.3613    0.0955 N   0  0  0  0  0  0  0  0  0  0  0  0
   -1.3183   -3.7787    0.0751 C   0  0  0  0  0  0  0  0  0  0  0  0
   -2.8555   -1.7698    0.2918 C   0  0  0  0  0  0  0  0  0  0  0  0
   -3.8321   -2.4690    0.5838 O   0  0  0  0  0  0  0  0  0  0  0  0
    2.9286    3.8478    0.5706 C   0  0  0  0  0  0  0  0  0  0  0  0
    1.7952    3.1475    1.2558 C   0  0  0  0  0  0  0  0  0  0  0  0
   -3.8465   -1.1975    2.8516 H   0  0  0  0  0  0  0  0  0  0  0  0
   -4.0418    0.3898    3.5864 H   0  0  0  0  0  0  0  0  0  0  0  0
   -4.9917   -0.0351    2.1571 H   0  0  0  0  0  0  0  0  0  0  0  0
   -3.1615    2.4231    2.5972 H   0  0  0  0  0  0  0  0  0  0  0  0
   -4.0728    2.1733    1.1023 H   0  0  0  0  0  0  0  0  0  0  0  0
   -2.3227    2.4468    1.0473 H   0  0  0  0  0  0  0  0  0  0  0  0
   -1.5140    0.6967    3.3898 H   0  0  0  0  0  0  0  0  0  0  0  0
   -0.7105    0.5944    1.8257 H   0  0  0  0  0  0  0  0  0  0  0  0
   -1.3628   -0.8668    2.5961 H   0  0  0  0  0  0  0  0  0  0  0  0
   -3.9806   -0.0225   -0.0930 H   0  0  0  0  0  0  0  0  0  0  0  0
   -1.1803    0.8260   -0.3347 H   0  0  0  0  0  0  0  0  0  0  0  0
   -2.2000    0.9950   -4.8868 H   0  0  0  0  0  0  0  0  0  0  0  0
   -0.0633    2.1480   -5.5996 H   0  0  0  0  0  0  0  0  0  0  0  0
    3.3098    3.2678   -2.4113 H   0  0  0  0  0  0  0  0  0  0  0  0
    4.1630    1.1670   -0.3655 H   0  0  0  0  0  0  0  0  0  0  0  0
    3.9688    1.4988    1.3509 H   0  0  0  0  0  0  0  0  0  0  0  0
    2.2021   -0.3108   -0.3702 H   0  0  0  0  0  0  0  0  0  0  0  0
    1.7487    0.1867    1.2426 H   0  0  0  0  0  0  0  0  0  0  0  0
    3.8309   -0.8539    2.1554 H   0  0  0  0  0  0  0  0  0  0  0  0
    4.2621   -1.4371    0.5385 H   0  0  0  0  0  0  0  0  0  0  0  0
    2.6568   -2.7476   -0.6115 H   0  0  0  0  0  0  0  0  0  0  0  0
    3.3859   -3.8801    0.5519 H   0  0  0  0  0  0  0  0  0  0  0  0
    1.4000   -5.0394    0.1395 H   0  0  0  0  0  0  0  0  0  0  0  0
    0.9166   -4.0614    1.5256 H   0  0  0  0  0  0  0  0  0  0  0  0
   -0.1003   -1.2072   -0.8609 H   0  0  0  0  0  0  0  0  0  0  0  0
    0.1225   -1.5194    0.8840 H   0  0  0  0  0  0  0  0  0  0  0  0
   -1.9162   -4.3495   -0.6422 H   0  0  0  0  0  0  0  0  0  0  0  0
   -1.4037   -4.2365    1.0659 H   0  0  0  0  0  0  0  0  0  0  0  0
    2.6834    4.7175   -0.0302 H   0  0  0  0  0  0  0  0  0  0  0  0
    3.8622    3.9492    1.1136 H   0  0  0  0  0  0  0  0  0  0  0  0
    0.7912    3.5289    1.0984 H   0  0  0  0  0  0  0  0  0  0  0  0
    1.9602    2.7711    2.2593 H   0  0  0  0  0  0  0  0  0  0  0  0
  1  2  1  0
  2  3  1  0
  2  4  1  0
  2  5  1  0
  5  6  1  0
  6  7  1  0
  7  8  2  0
  7  9  1  0
  9 10  2  0
 10 11  1  0
 11 12  1  0
 12 13  2  0
 13 14  1  0
 14 15  2  0
 15 16  1  0
 16 17  2  0
 15 18  1  0
 18 19  1  0
 19 20  1  0
 20 21  1  0
 21 22  1  0
 22 23  1  0
 23 24  1  0
 24 25  1  0
 25 26  1  0
 26 27  3  0
 25 28  1  0
 28 29  1  0
 29 30  1  0
 29 31  1  0
 31 32  2  0
 18 33  1  0
 33 34  1  0
 31  5  1  0
 17  9  1  0
 34 18  1  0
 17 12  1  0
 30 25  1  0
  1 35  1  0
  1 36  1  0
  1 37  1  0
  3 38  1  0
  3 39  1  0
  3 40  1  0
  4 41  1  0
  4 42  1  0
  4 43  1  0
  5 44  1  6
  6 45  1  0
 10 46  1  0
 11 47  1  0
 14 48  1  0
 19 49  1  0
 19 50  1  0
 20 51  1  0
 20 52  1  0
 21 53  1  0
 21 54  1  0
 23 55  1  0
 23 56  1  0
 24 57  1  0
 24 58  1  0
 28 59  1  0
 28 60  1  0
 30 61  1  0
 30 62  1  0
 33 63  1  0
 33 64  1  0
 34 65  1  0
 34 66  1  0
M  END
>  <candidate_id>  (1) 
CAND_7f998a5652

>  <source_generator>  (1) 
v5_3_model_guided_macrocycle

>  <parent_mol_id>  (1) 
JAK2_1a53985c87

>  <canonical_smiles>  (1) 
CC(C)(C)[C@H]1NC(=O)c2c[nH]c3ncc(nc23)C2(CCCOCCC3(C#N)CN(C3)C1=O)CC2

>  <inchikey>  (1) 
JWVNLZBTGGODGF-IBGZPJMESA-N

>  <valid_rdkit>  (1) 
True

>  <unique_flag>  (1) 
True

>  <novel_flag>  (1) 
True

>  <mw>  (1) 
464.57

>  <logp>  (1) 
2.6867

>  <tpsa>  (1) 
124.0

>  <hbd>  (1) 
2

>  <hba>  (1) 
6

>  <rotatable_bonds>  (1) 
0

>  <qed>  (1) 
0.6177

>  <sa_score>  (1) 
4.287

>  <murcko_scaffold>  (1) 
O=C1NCC(=O)N2CC(CCOCCCC3(CC3)c3cnc4[nH]cc1c4n3)C2

>  <max_ring_size>  (1) 
18

>  <has_macrocycle_12_20>  (1) 
True

>  <has_constrained_ring_8_11>  (1) 
False

>  <passes_basic_filters>  (1) 
True

>  <generation_notes>  (1) 
v5_3_model_guided_anchor_pair=15-24;anchor_scores=0.691,0.691;linker_length=6;target_ring=17;linker_prob=0.248;chemotype=oxa

$$$$
