CAND_956024a173
     RDKit          3D

 55 60  0  0  0  0  0  0  0  0999 V2000
    5.9549   -3.2922   -1.9218 N   0  0  0  0  0  0  0  0  0  0  0  0
    5.9291   -2.1893   -1.5621 C   0  0  0  0  0  0  0  0  0  0  0  0
    5.8976   -0.7829   -1.1303 C   0  0  1  0  0  0  0  0  0  0  0  0
    5.3840    0.1282   -2.2480 C   0  0  0  0  0  0  0  0  0  0  0  0
    3.8655    0.0341   -2.1314 C   0  0  0  0  0  0  0  0  0  0  0  0
    3.6251   -0.2649   -0.7302 N   0  0  0  0  0  0  0  0  0  0  0  0
    2.4167   -0.2433   -0.0599 C   0  0  0  0  0  0  0  0  0  0  0  0
    2.3767   -0.4301    1.1605 O   0  0  0  0  0  0  0  0  0  0  0  0
    1.1291   -0.0310   -0.9014 C   0  0  2  0  0  0  0  0  0  0  0  0
    0.2519    0.8736   -0.1931 N   0  0  0  0  0  0  0  0  0  0  0  0
    0.4484    2.2299   -0.1524 C   0  0  0  0  0  0  0  0  0  0  0  0
    1.3964    2.7886   -0.6955 O   0  0  0  0  0  0  0  0  0  0  0  0
   -0.5741    2.9448    0.5965 C   0  0  0  0  0  0  0  0  0  0  0  0
   -0.5128    4.2601    1.0375 C   0  0  0  0  0  0  0  0  0  0  0  0
   -1.6680    4.5412    1.7314 N   0  0  0  0  0  0  0  0  0  0  0  0
   -2.4829    3.4438    1.7285 C   0  0  0  0  0  0  0  0  0  0  0  0
   -3.6937    3.3382    2.3059 N   0  0  0  0  0  0  0  0  0  0  0  0
   -4.2148    2.0927    2.0921 C   0  0  0  0  0  0  0  0  0  0  0  0
   -3.6190    1.0453    1.3640 C   0  0  0  0  0  0  0  0  0  0  0  0
   -2.3978    1.2326    0.8095 N   0  0  0  0  0  0  0  0  0  0  0  0
   -1.8358    2.4488    1.0163 C   0  0  0  0  0  0  0  0  0  0  0  0
   -4.2945   -0.3260    1.1249 C   0  0  0  0  0  0  0  0  0  0  0  0
   -5.8021   -0.3471    0.8808 C   0  0  0  0  0  0  0  0  0  0  0  0
   -5.2535   -0.8968    2.1630 C   0  0  0  0  0  0  0  0  0  0  0  0
   -3.4701   -1.3223    0.3061 C   0  0  0  0  0  0  0  0  0  0  0  0
   -2.1991   -2.1147    1.3384 S   0  0  0  0  0  0  0  0  0  0  0  0
   -1.2594   -2.9851    0.0488 C   0  0  0  0  0  0  0  0  0  0  0  0
    0.0780   -2.3309   -0.1091 C   0  0  0  0  0  0  0  0  0  0  0  0
    0.9460   -2.6595   -1.3044 C   0  0  0  0  0  0  0  0  0  0  0  0
    0.3298   -1.2864   -1.1832 C   0  0  0  0  0  0  0  0  0  0  0  0
    4.8634   -0.5696   -0.0298 C   0  0  0  0  0  0  0  0  0  0  0  0
    6.8983   -0.4873   -0.7981 H   0  0  0  0  0  0  0  0  0  0  0  0
    5.6972    1.1602   -2.0445 H   0  0  0  0  0  0  0  0  0  0  0  0
    5.7392   -0.1405   -3.2479 H   0  0  0  0  0  0  0  0  0  0  0  0
    3.4591   -0.7877   -2.7303 H   0  0  0  0  0  0  0  0  0  0  0  0
    3.3786    0.9687   -2.4230 H   0  0  0  0  0  0  0  0  0  0  0  0
    1.3711    0.4390   -1.8572 H   0  0  0  0  0  0  0  0  0  0  0  0
   -0.5126    0.4772    0.3491 H   0  0  0  0  0  0  0  0  0  0  0  0
    0.2644    5.0057    0.9276 H   0  0  0  0  0  0  0  0  0  0  0  0
   -1.8992    5.4149    2.1824 H   0  0  0  0  0  0  0  0  0  0  0  0
   -5.1931    1.9566    2.5443 H   0  0  0  0  0  0  0  0  0  0  0  0
   -6.2065   -1.0533    0.1625 H   0  0  0  0  0  0  0  0  0  0  0  0
   -6.3664    0.5777    0.9180 H   0  0  0  0  0  0  0  0  0  0  0  0
   -5.4277   -0.3523    3.0835 H   0  0  0  0  0  0  0  0  0  0  0  0
   -5.2785   -1.9731    2.3055 H   0  0  0  0  0  0  0  0  0  0  0  0
   -3.0093   -0.8264   -0.5550 H   0  0  0  0  0  0  0  0  0  0  0  0
   -4.1133   -2.1177   -0.0872 H   0  0  0  0  0  0  0  0  0  0  0  0
   -1.1141   -4.0178    0.3817 H   0  0  0  0  0  0  0  0  0  0  0  0
   -1.8181   -3.0176   -0.8921 H   0  0  0  0  0  0  0  0  0  0  0  0
    0.5991   -2.2560    0.8417 H   0  0  0  0  0  0  0  0  0  0  0  0
    2.0079   -2.7922   -1.1273 H   0  0  0  0  0  0  0  0  0  0  0  0
    0.5516   -3.3266   -2.0637 H   0  0  0  0  0  0  0  0  0  0  0  0
   -0.4863   -1.0640   -1.8660 H   0  0  0  0  0  0  0  0  0  0  0  0
    5.1131    0.3092    0.5766 H   0  0  0  0  0  0  0  0  0  0  0  0
    4.7306   -1.4267    0.6392 H   0  0  0  0  0  0  0  0  0  0  0  0
  1  2  3  0
  2  3  1  0
  3  4  1  0
  4  5  1  0
  5  6  1  0
  6  7  1  0
  7  8  2  0
  7  9  1  0
  9 10  1  0
 10 11  1  0
 11 12  2  0
 11 13  1  0
 13 14  2  0
 14 15  1  0
 15 16  1  0
 16 17  2  0
 17 18  1  0
 18 19  2  0
 19 20  1  0
 20 21  2  0
 19 22  1  0
 22 23  1  0
 23 24  1  0
 22 25  1  0
 25 26  1  0
 26 27  1  0
 27 28  1  0
 28 29  1  0
 29 30  1  0
  6 31  1  0
 31  3  1  0
 30  9  1  0
 21 13  1  0
 24 22  1  0
 30 28  1  0
 21 16  1  0
  3 32  1  1
  4 33  1  0
  4 34  1  0
  5 35  1  0
  5 36  1  0
  9 37  1  6
 10 38  1  0
 14 39  1  0
 15 40  1  0
 18 41  1  0
 23 42  1  0
 23 43  1  0
 24 44  1  0
 24 45  1  0
 25 46  1  0
 25 47  1  0
 27 48  1  0
 27 49  1  0
 28 50  1  0
 29 51  1  0
 29 52  1  0
 30 53  1  0
 31 54  1  0
 31 55  1  0
M  END
>  <candidate_id>  (1) 
CAND_956024a173

>  <source_generator>  (1) 
v5_3_model_guided_macrocycle

>  <parent_mol_id>  (1) 
JAK2_9dcdbe0544

>  <canonical_smiles>  (1) 
N#C[C@H]1CCN(C(=O)[C@@H]2NC(=O)c3c[nH]c4ncc(nc34)C3(CC3)CSCC3CC32)C1

>  <inchikey>  (1) 
SPVWFDQKMXQKBE-PNDQRGPWSA-N

>  <valid_rdkit>  (1) 
True

>  <unique_flag>  (1) 
True

>  <novel_flag>  (1) 
True

>  <mw>  (1) 
436.541

>  <logp>  (1) 
1.8429

>  <tpsa>  (1) 
114.77

>  <hbd>  (1) 
2

>  <hba>  (1) 
6

>  <rotatable_bonds>  (1) 
1

>  <qed>  (1) 
0.705

>  <sa_score>  (1) 
5.006

>  <murcko_scaffold>  (1) 
O=C1N[C@@H](C(=O)N2CCCC2)C2CC2CSCC2(CC2)c2cnc3[nH]cc1c3n2

>  <max_ring_size>  (1) 
13

>  <has_macrocycle_12_20>  (1) 
True

>  <has_constrained_ring_8_11>  (1) 
False

>  <passes_basic_filters>  (1) 
True

>  <generation_notes>  (1) 
v5_3_model_guided_anchor_pair=19-25;anchor_scores=0.691,0.079;linker_length=3;target_ring=12;linker_prob=0.278;chemotype=thioether

$$$$
