CAND_44327fe5a9
     RDKit          3D

 57 62  0  0  0  0  0  0  0  0999 V2000
    7.6318    1.0641   -1.6226 N   0  0  0  0  0  0  0  0  0  0  0  0
    6.8277    0.3182   -1.2452 C   0  0  0  0  0  0  0  0  0  0  0  0
    5.8124   -0.6273   -0.7854 C   0  0  1  0  0  0  0  0  0  0  0  0
    5.9845   -1.0272    0.6799 C   0  0  0  0  0  0  0  0  0  0  0  0
    4.5996   -1.5353    1.0548 C   0  0  0  0  0  0  0  0  0  0  0  0
    3.6920   -0.7588    0.2301 N   0  0  0  0  0  0  0  0  0  0  0  0
    2.3344   -0.7346    0.4898 C   0  0  0  0  0  0  0  0  0  0  0  0
    1.8536   -1.4310    1.3896 O   0  0  0  0  0  0  0  0  0  0  0  0
    1.4496    0.1617   -0.4192 C   0  0  2  0  0  0  0  0  0  0  0  0
    0.4408    0.8003    0.3953 N   0  0  0  0  0  0  0  0  0  0  0  0
    0.6957    1.8486    1.2404 C   0  0  0  0  0  0  0  0  0  0  0  0
    1.8112    2.3348    1.3944 O   0  0  0  0  0  0  0  0  0  0  0  0
   -0.4906    2.3310    1.9333 C   0  0  0  0  0  0  0  0  0  0  0  0
   -0.5336    3.2368    2.9846 C   0  0  0  0  0  0  0  0  0  0  0  0
   -1.8484    3.4141    3.3540 N   0  0  0  0  0  0  0  0  0  0  0  0
   -2.6568    2.6592    2.5502 C   0  0  0  0  0  0  0  0  0  0  0  0
   -3.9995    2.5819    2.5984 N   0  0  0  0  0  0  0  0  0  0  0  0
   -4.4632    1.7462    1.6206 C   0  0  0  0  0  0  0  0  0  0  0  0
   -3.6885    1.0442    0.6775 C   0  0  0  0  0  0  0  0  0  0  0  0
   -2.3397    1.1533    0.7120 N   0  0  0  0  0  0  0  0  0  0  0  0
   -1.8398    1.9834    1.6611 C   0  0  0  0  0  0  0  0  0  0  0  0
   -4.2859    0.1580   -0.4406 C   0  0  0  0  0  0  0  0  0  0  0  0
   -3.2636   -0.4136   -1.4356 C   0  0  0  0  0  0  0  0  0  0  0  0
   -2.5468   -1.6620   -0.9032 C   0  0  0  0  0  0  0  0  0  0  0  0
   -1.4065   -2.1190   -1.8255 C   0  0  0  0  0  0  0  0  0  0  0  0
   -0.0515   -1.8524   -1.2342 C   0  0  0  0  0  0  0  0  0  0  0  0
    1.1753   -1.8840   -2.1150 C   0  0  0  0  0  0  0  0  0  0  0  0
    0.7130   -0.5731   -1.5224 C   0  0  0  0  0  0  0  0  0  0  0  0
   -5.6425    0.5330   -1.0263 C   0  0  0  0  0  0  0  0  0  0  0  0
   -5.5218   -0.6814   -0.1550 C   0  0  0  0  0  0  0  0  0  0  0  0
    4.4112   -0.0231   -0.7999 C   0  0  0  0  0  0  0  0  0  0  0  0
    5.8267   -1.5313   -1.4077 H   0  0  0  0  0  0  0  0  0  0  0  0
    6.2423   -0.1560    1.2964 H   0  0  0  0  0  0  0  0  0  0  0  0
    6.7613   -1.7835    0.8293 H   0  0  0  0  0  0  0  0  0  0  0  0
    4.3743   -1.4096    2.1181 H   0  0  0  0  0  0  0  0  0  0  0  0
    4.4740   -2.5906    0.7881 H   0  0  0  0  0  0  0  0  0  0  0  0
    2.0538    0.9581   -0.8629 H   0  0  0  0  0  0  0  0  0  0  0  0
   -0.5049    0.4288    0.3652 H   0  0  0  0  0  0  0  0  0  0  0  0
    0.2633    3.7576    3.5003 H   0  0  0  0  0  0  0  0  0  0  0  0
   -2.1872    4.0114    4.0947 H   0  0  0  0  0  0  0  0  0  0  0  0
   -5.5459    1.6582    1.6124 H   0  0  0  0  0  0  0  0  0  0  0  0
   -3.7673   -0.6829   -2.3735 H   0  0  0  0  0  0  0  0  0  0  0  0
   -2.5362    0.3623   -1.7050 H   0  0  0  0  0  0  0  0  0  0  0  0
   -2.1836   -1.4983    0.1175 H   0  0  0  0  0  0  0  0  0  0  0  0
   -3.2834   -2.4725   -0.8360 H   0  0  0  0  0  0  0  0  0  0  0  0
   -1.4994   -1.6710   -2.8219 H   0  0  0  0  0  0  0  0  0  0  0  0
   -1.4892   -3.2042   -1.9643 H   0  0  0  0  0  0  0  0  0  0  0  0
    0.0475   -2.3163   -0.2565 H   0  0  0  0  0  0  0  0  0  0  0  0
    1.0409   -2.0310   -3.1816 H   0  0  0  0  0  0  0  0  0  0  0  0
    2.0564   -2.3765   -1.7200 H   0  0  0  0  0  0  0  0  0  0  0  0
    0.2568    0.1360   -2.2083 H   0  0  0  0  0  0  0  0  0  0  0  0
   -5.8149    0.3781   -2.0869 H   0  0  0  0  0  0  0  0  0  0  0  0
   -6.1793    1.3925   -0.6425 H   0  0  0  0  0  0  0  0  0  0  0  0
   -5.9654   -0.6552    0.8338 H   0  0  0  0  0  0  0  0  0  0  0  0
   -5.6146   -1.6519   -0.6319 H   0  0  0  0  0  0  0  0  0  0  0  0
    4.4027    1.0378   -0.5224 H   0  0  0  0  0  0  0  0  0  0  0  0
    3.9174   -0.1360   -1.7702 H   0  0  0  0  0  0  0  0  0  0  0  0
  1  2  3  0
  2  3  1  0
  3  4  1  0
  4  5  1  0
  5  6  1  0
  6  7  1  0
  7  8  2  0
  7  9  1  0
  9 10  1  0
 10 11  1  0
 11 12  2  0
 11 13  1  0
 13 14  2  0
 14 15  1  0
 15 16  1  0
 16 17  2  0
 17 18  1  0
 18 19  2  0
 19 20  1  0
 20 21  2  0
 19 22  1  0
 22 23  1  0
 23 24  1  0
 24 25  1  0
 25 26  1  0
 26 27  1  0
 27 28  1  0
 22 29  1  0
 29 30  1  0
  6 31  1  0
 31  3  1  0
 28  9  1  0
 21 13  1  0
 30 22  1  0
 21 16  1  0
 28 26  1  0
  3 32  1  6
  4 33  1  0
  4 34  1  0
  5 35  1  0
  5 36  1  0
  9 37  1  6
 10 38  1  0
 14 39  1  0
 15 40  1  0
 18 41  1  0
 23 42  1  0
 23 43  1  0
 24 44  1  0
 24 45  1  0
 25 46  1  0
 25 47  1  0
 26 48  1  0
 27 49  1  0
 27 50  1  0
 28 51  1  0
 29 52  1  0
 29 53  1  0
 30 54  1  0
 30 55  1  0
 31 56  1  0
 31 57  1  0
M  END
>  <candidate_id>  (1) 
CAND_44327fe5a9

>  <source_generator>  (1) 
v5_3_model_guided_macrocycle

>  <parent_mol_id>  (1) 
JAK2_9dcdbe0544

>  <canonical_smiles>  (1) 
N#C[C@H]1CCN(C(=O)[C@@H]2NC(=O)c3c[nH]c4ncc(nc34)C3(CCCC4CC42)CC3)C1

>  <inchikey>  (1) 
XBZKYLTXKLNUSQ-BEFRKJEDSA-N

>  <valid_rdkit>  (1) 
True

>  <unique_flag>  (1) 
True

>  <novel_flag>  (1) 
True

>  <mw>  (1) 
418.501

>  <logp>  (1) 
2.28

>  <tpsa>  (1) 
114.77

>  <hbd>  (1) 
2

>  <hba>  (1) 
5

>  <rotatable_bonds>  (1) 
1

>  <qed>  (1) 
0.7373

>  <sa_score>  (1) 
4.906

>  <murcko_scaffold>  (1) 
O=C1N[C@@H](C(=O)N2CCCC2)C2CC2CCCC2(CC2)c2cnc3[nH]cc1c3n2

>  <max_ring_size>  (1) 
13

>  <has_macrocycle_12_20>  (1) 
True

>  <has_constrained_ring_8_11>  (1) 
False

>  <passes_basic_filters>  (1) 
True

>  <generation_notes>  (1) 
v5_3_model_guided_anchor_pair=19-25;anchor_scores=0.691,0.079;linker_length=3;target_ring=12;linker_prob=0.278;chemotype=oxa_aza

$$$$
