CAND_c32c4f2b09
     RDKit          3D

 69 75  0  0  0  0  0  0  0  0999 V2000
    3.2850    0.8044   -2.4869 F   0  0  0  0  0  0  0  0  0  0  0  0
    3.3472    0.3608   -1.2232 C   0  0  0  0  0  0  0  0  0  0  0  0
    3.4833   -1.0097   -1.0067 C   0  0  0  0  0  0  0  0  0  0  0  0
    3.5138   -1.5227    0.2973 C   0  0  0  0  0  0  0  0  0  0  0  0
    3.4639   -0.6201    1.3671 C   0  0  0  0  0  0  0  0  0  0  0  0
    3.3257    0.7486    1.1301 C   0  0  0  0  0  0  0  0  0  0  0  0
    3.2709    1.5724    2.1865 F   0  0  0  0  0  0  0  0  0  0  0  0
    3.2220    1.2608   -0.1651 C   0  0  0  0  0  0  0  0  0  0  0  0
    2.9791    2.7264   -0.4195 C   0  0  0  0  0  0  0  0  0  0  0  0
    1.7408    3.2526    0.1977 N   0  0  0  0  0  0  0  0  0  0  0  0
    1.8435    4.7266    0.3713 C   0  0  0  0  0  0  0  0  0  0  0  0
    0.9354    5.5695   -0.5441 C   0  0  0  0  0  0  0  0  0  0  0  0
    0.9107    5.0293   -1.8636 O   0  0  0  0  0  0  0  0  0  0  0  0
    0.3582    3.7022   -1.8862 C   0  0  0  0  0  0  0  0  0  0  0  0
    0.4806    2.9428   -0.5373 C   0  0  0  0  0  0  0  0  0  0  0  0
    0.1606    1.4479   -0.7419 C   0  0  0  0  0  0  0  0  0  0  0  0
   -1.2255    1.1988   -1.0092 O   0  0  0  0  0  0  0  0  0  0  0  0
   -2.0525    1.1968    0.1623 C   0  0  0  0  0  0  0  0  0  0  0  0
   -3.1673    0.1066    0.0686 C   0  0  0  0  0  0  0  0  0  0  0  0
   -3.9653    0.3424   -1.2446 C   0  0  0  0  0  0  0  0  0  0  0  0
   -5.4555    0.0914   -1.0465 C   0  0  0  0  0  0  0  0  0  0  0  0
   -6.0310    1.0159   -0.0670 N   0  0  0  0  0  0  0  0  0  0  0  0
   -5.1883    1.2678    1.0979 C   0  0  0  0  0  0  0  0  0  0  0  0
   -4.0927    0.2291    1.3086 C   0  0  0  0  0  0  0  0  0  0  0  0
   -2.5904   -1.2611    0.0744 N   0  0  0  0  0  0  0  0  0  0  0  0
   -1.3376   -1.6517    0.4530 C   0  0  0  0  0  0  0  0  0  0  0  0
   -1.2416   -3.0092    0.2289 C   0  0  0  0  0  0  0  0  0  0  0  0
   -2.5341   -3.3691   -0.1945 C   0  0  0  0  0  0  0  0  0  0  0  0
   -3.3663   -2.3249   -0.2584 N   0  0  0  0  0  0  0  0  0  0  0  0
   -0.0186   -3.7603    0.4145 C   0  0  0  0  0  0  0  0  0  0  0  0
    0.0161   -5.1306    0.5810 C   0  0  0  0  0  0  0  0  0  0  0  0
    1.1752   -5.8147    0.7518 N   0  0  0  0  0  0  0  0  0  0  0  0
    2.3139   -5.0903    0.7402 C   0  0  0  0  0  0  0  0  0  0  0  0
    3.5317   -5.7356    0.9074 C   0  0  0  0  0  0  0  0  0  0  0  0
    4.7370   -5.0343    0.8937 C   0  0  0  0  0  0  0  0  0  0  0  0
    4.7290   -3.6575    0.7021 C   0  0  0  0  0  0  0  0  0  0  0  0
    3.5146   -2.9760    0.5290 C   0  0  0  0  0  0  0  0  0  0  0  0
    2.2986   -3.6859    0.5574 C   0  0  0  0  0  0  0  0  0  0  0  0
    1.1243   -3.0355    0.4059 N   0  0  0  0  0  0  0  0  0  0  0  0
    3.5173   -1.6742   -1.8664 H   0  0  0  0  0  0  0  0  0  0  0  0
    3.4889   -0.9727    2.3949 H   0  0  0  0  0  0  0  0  0  0  0  0
    3.0125    2.9591   -1.4904 H   0  0  0  0  0  0  0  0  0  0  0  0
    3.8553    3.2267    0.0166 H   0  0  0  0  0  0  0  0  0  0  0  0
    2.8761    5.0706    0.2334 H   0  0  0  0  0  0  0  0  0  0  0  0
    1.5955    4.9645    1.4128 H   0  0  0  0  0  0  0  0  0  0  0  0
    1.3174    6.5939   -0.6032 H   0  0  0  0  0  0  0  0  0  0  0  0
   -0.0888    5.6265   -0.1559 H   0  0  0  0  0  0  0  0  0  0  0  0
   -0.6970    3.7878   -2.1706 H   0  0  0  0  0  0  0  0  0  0  0  0
    0.8714    3.1647   -2.6913 H   0  0  0  0  0  0  0  0  0  0  0  0
   -0.3215    3.3283    0.1079 H   0  0  0  0  0  0  0  0  0  0  0  0
    0.4688    0.8604    0.1273 H   0  0  0  0  0  0  0  0  0  0  0  0
    0.7049    1.0618   -1.6081 H   0  0  0  0  0  0  0  0  0  0  0  0
   -1.4587    1.0672    1.0756 H   0  0  0  0  0  0  0  0  0  0  0  0
   -2.5059    2.1929    0.2279 H   0  0  0  0  0  0  0  0  0  0  0  0
   -3.5859   -0.2841   -2.0617 H   0  0  0  0  0  0  0  0  0  0  0  0
   -3.8455    1.3800   -1.5865 H   0  0  0  0  0  0  0  0  0  0  0  0
   -5.6420   -0.9428   -0.7365 H   0  0  0  0  0  0  0  0  0  0  0  0
   -5.9776    0.2312   -1.9994 H   0  0  0  0  0  0  0  0  0  0  0  0
   -6.9404    0.6562    0.2256 H   0  0  0  0  0  0  0  0  0  0  0  0
   -5.8204    1.3170    1.9922 H   0  0  0  0  0  0  0  0  0  0  0  0
   -4.7409    2.2621    0.9900 H   0  0  0  0  0  0  0  0  0  0  0  0
   -3.5068    0.4837    2.2009 H   0  0  0  0  0  0  0  0  0  0  0  0
   -4.5738   -0.7311    1.5407 H   0  0  0  0  0  0  0  0  0  0  0  0
   -0.5908   -0.9610    0.8106 H   0  0  0  0  0  0  0  0  0  0  0  0
   -2.9123   -4.3449   -0.4703 H   0  0  0  0  0  0  0  0  0  0  0  0
   -0.8828   -5.7359    0.5945 H   0  0  0  0  0  0  0  0  0  0  0  0
    3.5398   -6.8141    1.0503 H   0  0  0  0  0  0  0  0  0  0  0  0
    5.6772   -5.5646    1.0257 H   0  0  0  0  0  0  0  0  0  0  0  0
    5.6714   -3.1132    0.6814 H   0  0  0  0  0  0  0  0  0  0  0  0
  1  2  1  0
  2  3  1  0
  3  4  2  0
  4  5  1  0
  5  6  2  0
  6  7  1  0
  6  8  1  0
  8  9  1  0
  9 10  1  0
 10 11  1  0
 11 12  1  0
 12 13  1  0
 13 14  1  0
 14 15  1  0
 15 16  1  0
 16 17  1  0
 17 18  1  0
 18 19  1  0
 19 20  1  0
 20 21  1  0
 21 22  1  0
 22 23  1  0
 23 24  1  0
 19 25  1  0
 25 26  1  0
 26 27  2  0
 27 28  1  0
 28 29  2  0
 27 30  1  0
 30 31  2  0
 31 32  1  0
 32 33  2  0
 33 34  1  0
 34 35  2  0
 35 36  1  0
 36 37  2  0
 37 38  1  0
 38 39  2  0
  8  2  2  0
 15 10  1  0
 24 19  1  0
 29 25  1  0
 39 30  1  0
 37  4  1  0
 38 33  1  0
  3 40  1  0
  5 41  1  0
  9 42  1  0
  9 43  1  0
 11 44  1  0
 11 45  1  0
 12 46  1  0
 12 47  1  0
 14 48  1  0
 14 49  1  0
 15 50  1  0
 16 51  1  0
 16 52  1  0
 18 53  1  0
 18 54  1  0
 20 55  1  0
 20 56  1  0
 21 57  1  0
 21 58  1  0
 22 59  1  0
 23 60  1  0
 23 61  1  0
 24 62  1  0
 24 63  1  0
 26 64  1  0
 28 65  1  0
 31 66  1  0
 34 67  1  0
 35 68  1  0
 36 69  1  0
M  END
>  <candidate_id>  (1) 
CAND_c32c4f2b09

>  <source_generator>  (1) 
v5_3_model_guided_macrocycle

>  <parent_mol_id>  (1) 
JAK2_2dc2722230

>  <canonical_smiles>  (1) 
Fc1cc2cc(F)c1CN1CCOCC1COCC1(CCNCC1)n1cc(cn1)-c1cnc3cccc-2c3n1

>  <inchikey>  (1) 
IHUURJAMUAUACN-UHFFFAOYSA-N

>  <valid_rdkit>  (1) 
True

>  <unique_flag>  (1) 
True

>  <novel_flag>  (1) 
True

>  <mw>  (1) 
532.595

>  <logp>  (1) 
3.7482

>  <tpsa>  (1) 
77.33

>  <hbd>  (1) 
1

>  <hba>  (1) 
7

>  <rotatable_bonds>  (1) 
0

>  <qed>  (1) 
0.3698

>  <sa_score>  (1) 
4.664

>  <murcko_scaffold>  (1) 
c1cc2c3nc(cnc3c1)-c1cnn(c1)C1(CCNCC1)COCC1COCCN1Cc1ccc-2cc1

>  <max_ring_size>  (1) 
18

>  <has_macrocycle_12_20>  (1) 
True

>  <has_constrained_ring_8_11>  (1) 
False

>  <passes_basic_filters>  (1) 
True

>  <generation_notes>  (1) 
v5_3_model_guided_anchor_pair=16-31;anchor_scores=0.691,0.079;linker_length=3;target_ring=17;linker_prob=0.539;chemotype=oxa

$$$$
