CAND_e16585ad8a
     RDKit          3D

 62 67  0  0  0  0  0  0  0  0999 V2000
    2.5479    4.6250    2.3862 N   0  0  0  0  0  0  0  0  0  0  0  0
    2.0077    3.9754    1.5911 C   0  0  0  0  0  0  0  0  0  0  0  0
    1.3239    3.1557    0.5954 C   0  0  0  0  0  0  0  0  0  0  0  0
   -0.1841    3.4550    0.6515 C   0  0  0  0  0  0  0  0  0  0  0  0
   -1.0305    2.7328   -0.4056 C   0  0  0  0  0  0  0  0  0  0  0  0
   -2.5267    3.0254   -0.2401 C   0  0  0  0  0  0  0  0  0  0  0  0
   -3.0145    2.4981    1.0351 N   0  0  0  0  0  0  0  0  0  0  0  0
   -3.9984    1.4206    0.8910 C   0  0  0  0  0  0  0  0  0  0  0  0
   -3.5146    0.1386    0.1989 C   0  0  0  0  0  0  0  0  0  0  0  0
   -2.5617   -0.7982    0.9423 C   0  0  0  0  0  0  0  0  0  0  0  0
   -1.6453   -0.3002    2.0513 C   0  0  0  0  0  0  0  0  0  0  0  0
   -2.8349   -1.1415    2.4032 C   0  0  0  0  0  0  0  0  0  0  0  0
   -2.0512   -1.9373    0.0504 C   0  0  0  0  0  0  0  0  0  0  0  0
   -2.8929   -3.0238   -0.2447 C   0  0  0  0  0  0  0  0  0  0  0  0
   -2.5888   -4.0694   -1.0525 N   0  0  0  0  0  0  0  0  0  0  0  0
   -1.3441   -3.9350   -1.5439 C   0  0  0  0  0  0  0  0  0  0  0  0
   -0.7308   -4.8116   -2.3904 N   0  0  0  0  0  0  0  0  0  0  0  0
    0.5335   -4.3650   -2.6691 C   0  0  0  0  0  0  0  0  0  0  0  0
    0.7456   -3.1698   -1.9895 C   0  0  0  0  0  0  0  0  0  0  0  0
   -0.4581   -2.8942   -1.2830 C   0  0  0  0  0  0  0  0  0  0  0  0
   -0.7932   -1.8518   -0.4685 N   0  0  0  0  0  0  0  0  0  0  0  0
    1.9939   -2.4239   -2.0268 C   0  0  0  0  0  0  0  0  0  0  0  0
    2.9597   -2.8169   -2.6733 O   0  0  0  0  0  0  0  0  0  0  0  0
    2.0128   -1.2852   -1.2594 N   0  0  0  0  0  0  0  0  0  0  0  0
    3.2147   -0.4860   -1.1079 C   0  0  2  0  0  0  0  0  0  0  0  0
    3.8340   -0.6450    0.2657 C   0  0  0  0  0  0  0  0  0  0  0  0
    3.1519   -1.3177    1.4414 C   0  0  0  0  0  0  0  0  0  0  0  0
    4.2793   -2.0130    0.7362 C   0  0  0  0  0  0  0  0  0  0  0  0
    2.9396    0.9749   -1.5251 C   0  0  0  0  0  0  0  0  0  0  0  0
    3.2479    1.3890   -2.6465 O   0  0  0  0  0  0  0  0  0  0  0  0
    2.2883    1.7960   -0.6484 N   0  0  0  0  0  0  0  0  0  0  0  0
    2.0194    3.2159   -0.7866 C   0  0  0  0  0  0  0  0  0  0  0  0
    1.7471    1.6637    0.6836 C   0  0  0  0  0  0  0  0  0  0  0  0
   -0.5516    3.1950    1.6526 H   0  0  0  0  0  0  0  0  0  0  0  0
   -0.3446    4.5355    0.5310 H   0  0  0  0  0  0  0  0  0  0  0  0
   -0.7350    3.0629   -1.4070 H   0  0  0  0  0  0  0  0  0  0  0  0
   -0.8594    1.6519   -0.3730 H   0  0  0  0  0  0  0  0  0  0  0  0
   -3.0841    2.6345   -1.0990 H   0  0  0  0  0  0  0  0  0  0  0  0
   -2.6818    4.1114   -0.2552 H   0  0  0  0  0  0  0  0  0  0  0  0
   -3.4553    3.2588    1.5556 H   0  0  0  0  0  0  0  0  0  0  0  0
   -4.3808    1.1794    1.8882 H   0  0  0  0  0  0  0  0  0  0  0  0
   -4.8580    1.8129    0.3320 H   0  0  0  0  0  0  0  0  0  0  0  0
   -4.4149   -0.4459   -0.0369 H   0  0  0  0  0  0  0  0  0  0  0  0
   -3.0692    0.3890   -0.7717 H   0  0  0  0  0  0  0  0  0  0  0  0
   -0.6625   -0.7502    2.1504 H   0  0  0  0  0  0  0  0  0  0  0  0
   -1.6618    0.7410    2.3446 H   0  0  0  0  0  0  0  0  0  0  0  0
   -2.6403   -2.1497    2.7559 H   0  0  0  0  0  0  0  0  0  0  0  0
   -3.6560   -0.6635    2.9234 H   0  0  0  0  0  0  0  0  0  0  0  0
   -3.8908   -3.0670    0.1842 H   0  0  0  0  0  0  0  0  0  0  0  0
   -1.1605   -5.6573   -2.7378 H   0  0  0  0  0  0  0  0  0  0  0  0
    1.1920   -4.9277   -3.3195 H   0  0  0  0  0  0  0  0  0  0  0  0
    1.1643   -1.0186   -0.7694 H   0  0  0  0  0  0  0  0  0  0  0  0
    3.9715   -0.8409   -1.8197 H   0  0  0  0  0  0  0  0  0  0  0  0
    4.5352    0.1596    0.4711 H   0  0  0  0  0  0  0  0  0  0  0  0
    2.1590   -1.7370    1.3284 H   0  0  0  0  0  0  0  0  0  0  0  0
    3.3472   -0.9255    2.4340 H   0  0  0  0  0  0  0  0  0  0  0  0
    4.0449   -2.8785    0.1257 H   0  0  0  0  0  0  0  0  0  0  0  0
    5.2334   -2.0872    1.2466 H   0  0  0  0  0  0  0  0  0  0  0  0
    2.9401    3.8076   -0.8433 H   0  0  0  0  0  0  0  0  0  0  0  0
    1.3952    3.4561   -1.6501 H   0  0  0  0  0  0  0  0  0  0  0  0
    2.5052    1.4426    1.4405 H   0  0  0  0  0  0  0  0  0  0  0  0
    0.9411    0.9301    0.7564 H   0  0  0  0  0  0  0  0  0  0  0  0
  1  2  3  0
  2  3  1  0
  3  4  1  0
  4  5  1  0
  5  6  1  0
  6  7  1  0
  7  8  1  0
  8  9  1  0
  9 10  1  0
 10 11  1  0
 11 12  1  0
 10 13  1  0
 13 14  2  0
 14 15  1  0
 15 16  2  0
 16 17  1  0
 17 18  1  0
 18 19  2  0
 19 20  1  0
 20 21  2  0
 19 22  1  0
 22 23  2  0
 22 24  1  0
 24 25  1  0
 25 26  1  0
 26 27  1  0
 27 28  1  0
 25 29  1  0
 29 30  2  0
 29 31  1  0
 31 32  1  0
 31 33  1  0
 32  3  1  0
 33  3  1  0
 12 10  1  0
 21 13  1  0
 28 26  1  0
 20 16  1  0
  4 34  1  0
  4 35  1  0
  5 36  1  0
  5 37  1  0
  6 38  1  0
  6 39  1  0
  7 40  1  0
  8 41  1  0
  8 42  1  0
  9 43  1  0
  9 44  1  0
 11 45  1  0
 11 46  1  0
 12 47  1  0
 12 48  1  0
 14 49  1  0
 17 50  1  0
 18 51  1  0
 24 52  1  0
 25 53  1  6
 26 54  1  0
 27 55  1  0
 27 56  1  0
 28 57  1  0
 28 58  1  0
 32 59  1  0
 32 60  1  0
 33 61  1  0
 33 62  1  0
M  END
>  <candidate_id>  (1) 
CAND_e16585ad8a

>  <source_generator>  (1) 
v5_3_model_guided_macrocycle

>  <parent_mol_id>  (1) 
JAK2_c385760536

>  <canonical_smiles>  (1) 
N#CC12CCCNCCC3(CC3)c3cnc4[nH]cc(c4n3)C(=O)N[C@H](C3CC3)C(=O)N(C1)C2

>  <inchikey>  (1) 
YXVBVFPWDMRIHX-GOSISDBHSA-N

>  <valid_rdkit>  (1) 
True

>  <unique_flag>  (1) 
True

>  <novel_flag>  (1) 
True

>  <mw>  (1) 
447.543

>  <logp>  (1) 
1.6236

>  <tpsa>  (1) 
126.8

>  <hbd>  (1) 
3

>  <hba>  (1) 
6

>  <rotatable_bonds>  (1) 
1

>  <qed>  (1) 
0.6098

>  <sa_score>  (1) 
4.317

>  <murcko_scaffold>  (1) 
O=C1N[C@H](C2CC2)C(=O)N2CC(CCCNCCC3(CC3)c3cnc4[nH]cc1c4n3)C2

>  <max_ring_size>  (1) 
18

>  <has_macrocycle_12_20>  (1) 
True

>  <has_constrained_ring_8_11>  (1) 
False

>  <passes_basic_filters>  (1) 
True

>  <generation_notes>  (1) 
v5_3_model_guided_anchor_pair=2-18;anchor_scores=0.691,0.691;linker_length=6;target_ring=17;linker_prob=0.209;chemotype=aza

$$$$
