CAND_4791e858cc
     RDKit          3D

 61 66  0  0  0  0  0  0  0  0999 V2000
    3.8943    3.7896   -2.9498 N   0  0  0  0  0  0  0  0  0  0  0  0
    3.1765    3.0789   -2.3793 C   0  0  0  0  0  0  0  0  0  0  0  0
    2.2754    2.1927   -1.6632 C   0  0  0  0  0  0  0  0  0  0  0  0
    0.9101    2.0464   -2.3696 C   0  0  0  0  0  0  0  0  0  0  0  0
    0.1289    3.3590   -2.5417 C   0  0  0  0  0  0  0  0  0  0  0  0
   -0.7316    3.7994   -1.3563 C   0  0  0  0  0  0  0  0  0  0  0  0
   -1.8653    2.9538   -1.1955 O   0  0  0  0  0  0  0  0  0  0  0  0
   -1.8184    2.1144   -0.0411 C   0  0  0  0  0  0  0  0  0  0  0  0
   -3.2135    1.5207    0.1682 C   0  0  0  0  0  0  0  0  0  0  0  0
   -3.2057    0.2686    1.0281 C   0  0  0  0  0  0  0  0  0  0  0  0
   -2.6987    0.3866    2.4580 C   0  0  0  0  0  0  0  0  0  0  0  0
   -4.1636    0.2034    2.2111 C   0  0  0  0  0  0  0  0  0  0  0  0
   -2.9186   -1.0188    0.2616 C   0  0  0  0  0  0  0  0  0  0  0  0
   -3.9566   -1.7415   -0.3509 C   0  0  0  0  0  0  0  0  0  0  0  0
   -3.8142   -2.8783   -1.0842 N   0  0  0  0  0  0  0  0  0  0  0  0
   -2.5166   -3.2252   -1.1631 C   0  0  0  0  0  0  0  0  0  0  0  0
   -2.0111   -4.2979   -1.8405 N   0  0  0  0  0  0  0  0  0  0  0  0
   -0.6429   -4.3136   -1.7204 C   0  0  0  0  0  0  0  0  0  0  0  0
   -0.2560   -3.2379   -0.9308 C   0  0  0  0  0  0  0  0  0  0  0  0
   -1.4505   -2.5521   -0.5817 C   0  0  0  0  0  0  0  0  0  0  0  0
   -1.6261   -1.4243    0.1595 N   0  0  0  0  0  0  0  0  0  0  0  0
    1.1124   -2.8955   -0.5787 C   0  0  0  0  0  0  0  0  0  0  0  0
    2.0848   -3.4416   -1.0898 O   0  0  0  0  0  0  0  0  0  0  0  0
    1.2190   -1.8991    0.3553 N   0  0  0  0  0  0  0  0  0  0  0  0
    2.4884   -1.3494    0.7896 C   0  0  2  0  0  0  0  0  0  0  0  0
    3.0016   -2.1715    1.9453 C   0  0  0  0  0  0  0  0  0  0  0  0
    3.7544   -1.5813    3.1125 C   0  0  0  0  0  0  0  0  0  0  0  0
    2.3756   -2.1512    3.3187 C   0  0  0  0  0  0  0  0  0  0  0  0
    2.2216    0.1480    1.0398 C   0  0  0  0  0  0  0  0  0  0  0  0
    1.6612    0.5820    2.0486 O   0  0  0  0  0  0  0  0  0  0  0  0
    2.5108    0.9870   -0.0018 N   0  0  0  0  0  0  0  0  0  0  0  0
    2.2819    2.4108   -0.1257 C   0  0  0  0  0  0  0  0  0  0  0  0
    2.9263    0.8024   -1.3737 C   0  0  0  0  0  0  0  0  0  0  0  0
    1.0938    1.6410   -3.3752 H   0  0  0  0  0  0  0  0  0  0  0  0
    0.2908    1.2972   -1.8674 H   0  0  0  0  0  0  0  0  0  0  0  0
    0.8063    4.1779   -2.8061 H   0  0  0  0  0  0  0  0  0  0  0  0
   -0.5454    3.2190   -3.3974 H   0  0  0  0  0  0  0  0  0  0  0  0
   -1.1317    4.7929   -1.5902 H   0  0  0  0  0  0  0  0  0  0  0  0
   -0.1598    3.9145   -0.4341 H   0  0  0  0  0  0  0  0  0  0  0  0
   -1.5329    2.6972    0.8427 H   0  0  0  0  0  0  0  0  0  0  0  0
   -1.0733    1.3303   -0.1942 H   0  0  0  0  0  0  0  0  0  0  0  0
   -3.8572    2.2932    0.6097 H   0  0  0  0  0  0  0  0  0  0  0  0
   -3.6730    1.2957   -0.8032 H   0  0  0  0  0  0  0  0  0  0  0  0
   -2.1423   -0.4453    2.8787 H   0  0  0  0  0  0  0  0  0  0  0  0
   -2.3656    1.3518    2.8238 H   0  0  0  0  0  0  0  0  0  0  0  0
   -4.5974   -0.7498    2.4948 H   0  0  0  0  0  0  0  0  0  0  0  0
   -4.8177    1.0473    2.4040 H   0  0  0  0  0  0  0  0  0  0  0  0
   -4.9825   -1.3927   -0.2625 H   0  0  0  0  0  0  0  0  0  0  0  0
   -2.5766   -4.9559   -2.3578 H   0  0  0  0  0  0  0  0  0  0  0  0
   -0.0514   -5.0828   -2.2017 H   0  0  0  0  0  0  0  0  0  0  0  0
    0.3659   -1.5097    0.7550 H   0  0  0  0  0  0  0  0  0  0  0  0
    3.2172   -1.4499   -0.0225 H   0  0  0  0  0  0  0  0  0  0  0  0
    3.3396   -3.1430    1.5892 H   0  0  0  0  0  0  0  0  0  0  0  0
    4.5941   -2.1416    3.5095 H   0  0  0  0  0  0  0  0  0  0  0  0
    3.8696   -0.5069    3.1974 H   0  0  0  0  0  0  0  0  0  0  0  0
    2.2885   -3.0950    3.8472 H   0  0  0  0  0  0  0  0  0  0  0  0
    1.5644   -1.4631    3.5243 H   0  0  0  0  0  0  0  0  0  0  0  0
    3.1142    2.9962    0.2806 H   0  0  0  0  0  0  0  0  0  0  0  0
    1.3515    2.7333    0.3405 H   0  0  0  0  0  0  0  0  0  0  0  0
    4.0154    0.7357   -1.4677 H   0  0  0  0  0  0  0  0  0  0  0  0
    2.4617   -0.0518   -1.8756 H   0  0  0  0  0  0  0  0  0  0  0  0
  1  2  3  0
  2  3  1  0
  3  4  1  0
  4  5  1  0
  5  6  1  0
  6  7  1  0
  7  8  1  0
  8  9  1  0
  9 10  1  0
 10 11  1  0
 11 12  1  0
 10 13  1  0
 13 14  2  0
 14 15  1  0
 15 16  2  0
 16 17  1  0
 17 18  1  0
 18 19  2  0
 19 20  1  0
 20 21  2  0
 19 22  1  0
 22 23  2  0
 22 24  1  0
 24 25  1  0
 25 26  1  0
 26 27  1  0
 27 28  1  0
 25 29  1  0
 29 30  2  0
 29 31  1  0
 31 32  1  0
 31 33  1  0
 32  3  1  0
 33  3  1  0
 12 10  1  0
 21 13  1  0
 28 26  1  0
 20 16  1  0
  4 34  1  0
  4 35  1  0
  5 36  1  0
  5 37  1  0
  6 38  1  0
  6 39  1  0
  8 40  1  0
  8 41  1  0
  9 42  1  0
  9 43  1  0
 11 44  1  0
 11 45  1  0
 12 46  1  0
 12 47  1  0
 14 48  1  0
 17 49  1  0
 18 50  1  0
 24 51  1  0
 25 52  1  6
 26 53  1  0
 27 54  1  0
 27 55  1  0
 28 56  1  0
 28 57  1  0
 32 58  1  0
 32 59  1  0
 33 60  1  0
 33 61  1  0
M  END
>  <candidate_id>  (1) 
CAND_4791e858cc

>  <source_generator>  (1) 
v5_3_model_guided_macrocycle

>  <parent_mol_id>  (1) 
JAK2_c385760536

>  <canonical_smiles>  (1) 
N#CC12CCCOCCC3(CC3)c3cnc4[nH]cc(c4n3)C(=O)N[C@H](C3CC3)C(=O)N(C1)C2

>  <inchikey>  (1) 
UCMKEZGQMVNLBU-GOSISDBHSA-N

>  <valid_rdkit>  (1) 
True

>  <unique_flag>  (1) 
True

>  <novel_flag>  (1) 
True

>  <mw>  (1) 
448.527

>  <logp>  (1) 
2.0506

>  <tpsa>  (1) 
124.0

>  <hbd>  (1) 
2

>  <hba>  (1) 
6

>  <rotatable_bonds>  (1) 
1

>  <qed>  (1) 
0.6881

>  <sa_score>  (1) 
4.322

>  <murcko_scaffold>  (1) 
O=C1N[C@H](C2CC2)C(=O)N2CC(CCCOCCC3(CC3)c3cnc4[nH]cc1c4n3)C2

>  <max_ring_size>  (1) 
18

>  <has_macrocycle_12_20>  (1) 
True

>  <has_constrained_ring_8_11>  (1) 
False

>  <passes_basic_filters>  (1) 
True

>  <generation_notes>  (1) 
v5_3_model_guided_anchor_pair=2-18;anchor_scores=0.691,0.691;linker_length=6;target_ring=17;linker_prob=0.209;chemotype=oxa

$$$$
