CAND_f01d409d4a
     RDKit          3D

 69 75  0  0  0  0  0  0  0  0999 V2000
   -3.5468    0.2437    2.5529 F   0  0  0  0  0  0  0  0  0  0  0  0
   -3.2743   -0.2879    1.3516 C   0  0  0  0  0  0  0  0  0  0  0  0
   -3.0066   -1.6555    1.2774 C   0  0  0  0  0  0  0  0  0  0  0  0
   -2.7551   -2.2656    0.0406 C   0  0  0  0  0  0  0  0  0  0  0  0
   -2.7715   -1.4649   -1.1085 C   0  0  0  0  0  0  0  0  0  0  0  0
   -3.0454   -0.0996   -1.0144 C   0  0  0  0  0  0  0  0  0  0  0  0
   -3.0776    0.6219   -2.1449 F   0  0  0  0  0  0  0  0  0  0  0  0
   -3.3046    0.5142    0.2108 C   0  0  0  0  0  0  0  0  0  0  0  0
   -3.6226    1.9825    0.3066 C   0  0  0  0  0  0  0  0  0  0  0  0
   -2.4918    2.8031    0.7934 N   0  0  0  0  0  0  0  0  0  0  0  0
   -2.9948    4.0678    1.3602 C   0  0  0  0  0  0  0  0  0  0  0  0
   -3.6297    5.0103    0.3188 C   0  0  0  0  0  0  0  0  0  0  0  0
   -2.9927    4.9628   -0.9654 O   0  0  0  0  0  0  0  0  0  0  0  0
   -1.6312    4.5449   -0.8604 C   0  0  0  0  0  0  0  0  0  0  0  0
   -1.5189    3.0959   -0.3035 C   0  0  0  0  0  0  0  0  0  0  0  0
   -0.0512    2.8753    0.1419 C   0  0  0  0  0  0  0  0  0  0  0  0
    0.3224    1.1609    0.6521 S   0  0  0  0  0  0  0  0  0  0  0  0
    2.1422    1.2592    0.8270 C   0  0  0  0  0  0  0  0  0  0  0  0
    2.8691    1.1737   -0.5366 C   0  0  0  0  0  0  0  0  0  0  0  0
    3.5384    2.5137   -0.8996 C   0  0  0  0  0  0  0  0  0  0  0  0
    4.6848    2.8489   -0.0583 N   0  0  0  0  0  0  0  0  0  0  0  0
    5.7104    1.8120   -0.1130 C   0  0  0  0  0  0  0  0  0  0  0  0
    5.1646    0.4473    0.2859 C   0  0  0  0  0  0  0  0  0  0  0  0
    3.9539    0.0571   -0.5875 C   0  0  0  0  0  0  0  0  0  0  0  0
    3.4637   -1.2948   -0.3095 N   0  0  0  0  0  0  0  0  0  0  0  0
    2.2259   -1.8102   -0.5740 C   0  0  0  0  0  0  0  0  0  0  0  0
    2.2381   -3.1228   -0.1486 C   0  0  0  0  0  0  0  0  0  0  0  0
    3.5597   -3.3219    0.2958 C   0  0  0  0  0  0  0  0  0  0  0  0
    4.3134   -2.2274    0.1748 N   0  0  0  0  0  0  0  0  0  0  0  0
    1.0957   -4.0094   -0.1849 C   0  0  0  0  0  0  0  0  0  0  0  0
    1.2320   -5.3848   -0.2272 C   0  0  0  0  0  0  0  0  0  0  0  0
    0.1705   -6.2242   -0.2338 N   0  0  0  0  0  0  0  0  0  0  0  0
   -1.0467   -5.6514   -0.1802 C   0  0  0  0  0  0  0  0  0  0  0  0
   -2.1615   -6.4770   -0.1676 C   0  0  0  0  0  0  0  0  0  0  0  0
   -3.4499   -5.9568   -0.0970 C   0  0  0  0  0  0  0  0  0  0  0  0
   -3.6252   -4.5811   -0.0337 C   0  0  0  0  0  0  0  0  0  0  0  0
   -2.5156   -3.7151   -0.0479 C   0  0  0  0  0  0  0  0  0  0  0  0
   -1.2126   -4.2418   -0.1300 C   0  0  0  0  0  0  0  0  0  0  0  0
   -0.1275   -3.4315   -0.1484 N   0  0  0  0  0  0  0  0  0  0  0  0
   -2.9974   -2.2352    2.1964 H   0  0  0  0  0  0  0  0  0  0  0  0
   -2.5755   -1.8942   -2.0872 H   0  0  0  0  0  0  0  0  0  0  0  0
   -4.4686    2.0653    1.0038 H   0  0  0  0  0  0  0  0  0  0  0  0
   -4.0101    2.3544   -0.6514 H   0  0  0  0  0  0  0  0  0  0  0  0
   -2.1481    4.5826    1.8340 H   0  0  0  0  0  0  0  0  0  0  0  0
   -3.7012    3.8824    2.1786 H   0  0  0  0  0  0  0  0  0  0  0  0
   -3.5949    6.0438    0.6802 H   0  0  0  0  0  0  0  0  0  0  0  0
   -4.6822    4.7521    0.1615 H   0  0  0  0  0  0  0  0  0  0  0  0
   -1.1944    4.5865   -1.8644 H   0  0  0  0  0  0  0  0  0  0  0  0
   -1.0864    5.2692   -0.2414 H   0  0  0  0  0  0  0  0  0  0  0  0
   -1.7033    2.4267   -1.1523 H   0  0  0  0  0  0  0  0  0  0  0  0
    0.6004    3.1251   -0.7000 H   0  0  0  0  0  0  0  0  0  0  0  0
    0.1984    3.5414    0.9753 H   0  0  0  0  0  0  0  0  0  0  0  0
    2.3791    2.1749    1.3772 H   0  0  0  0  0  0  0  0  0  0  0  0
    2.4229    0.4268    1.4792 H   0  0  0  0  0  0  0  0  0  0  0  0
    2.1434    0.9633   -1.3336 H   0  0  0  0  0  0  0  0  0  0  0  0
    3.8617    2.4879   -1.9484 H   0  0  0  0  0  0  0  0  0  0  0  0
    2.8151    3.3323   -0.8338 H   0  0  0  0  0  0  0  0  0  0  0  0
    4.3965    2.9935    0.9092 H   0  0  0  0  0  0  0  0  0  0  0  0
    6.5309    2.0887    0.5583 H   0  0  0  0  0  0  0  0  0  0  0  0
    6.1375    1.7688   -1.1224 H   0  0  0  0  0  0  0  0  0  0  0  0
    5.9734   -0.2856    0.1770 H   0  0  0  0  0  0  0  0  0  0  0  0
    4.8855    0.4488    1.3474 H   0  0  0  0  0  0  0  0  0  0  0  0
    4.3081   -0.0119   -1.6272 H   0  0  0  0  0  0  0  0  0  0  0  0
    1.4290   -1.2225   -1.0082 H   0  0  0  0  0  0  0  0  0  0  0  0
    4.0106   -4.2144    0.7102 H   0  0  0  0  0  0  0  0  0  0  0  0
    2.2007   -5.8699   -0.2646 H   0  0  0  0  0  0  0  0  0  0  0  0
   -2.0192   -7.5546   -0.2096 H   0  0  0  0  0  0  0  0  0  0  0  0
   -4.3091   -6.6226   -0.0863 H   0  0  0  0  0  0  0  0  0  0  0  0
   -4.6338   -4.1751    0.0280 H   0  0  0  0  0  0  0  0  0  0  0  0
  1  2  1  0
  2  3  1  0
  3  4  2  0
  4  5  1  0
  5  6  2  0
  6  7  1  0
  6  8  1  0
  8  9  1  0
  9 10  1  0
 10 11  1  0
 11 12  1  0
 12 13  1  0
 13 14  1  0
 14 15  1  0
 15 16  1  0
 16 17  1  0
 17 18  1  0
 18 19  1  0
 19 20  1  0
 20 21  1  0
 21 22  1  0
 22 23  1  0
 23 24  1  0
 24 25  1  0
 25 26  1  0
 26 27  2  0
 27 28  1  0
 28 29  2  0
 27 30  1  0
 30 31  2  0
 31 32  1  0
 32 33  2  0
 33 34  1  0
 34 35  2  0
 35 36  1  0
 36 37  2  0
 37 38  1  0
 38 39  2  0
  8  2  2  0
 15 10  1  0
 24 19  1  0
 29 25  1  0
 39 30  1  0
 37  4  1  0
 38 33  1  0
  3 40  1  0
  5 41  1  0
  9 42  1  0
  9 43  1  0
 11 44  1  0
 11 45  1  0
 12 46  1  0
 12 47  1  0
 14 48  1  0
 14 49  1  0
 15 50  1  0
 16 51  1  0
 16 52  1  0
 18 53  1  0
 18 54  1  0
 19 55  1  0
 20 56  1  0
 20 57  1  0
 21 58  1  0
 22 59  1  0
 22 60  1  0
 23 61  1  0
 23 62  1  0
 24 63  1  0
 26 64  1  0
 28 65  1  0
 31 66  1  0
 34 67  1  0
 35 68  1  0
 36 69  1  0
M  END
>  <candidate_id>  (1) 
CAND_f01d409d4a

>  <source_generator>  (1) 
v5_3_model_guided_macrocycle

>  <parent_mol_id>  (1) 
JAK2_2dc2722230

>  <canonical_smiles>  (1) 
Fc1cc2cc(F)c1CN1CCOCC1CSCC1CNCCC1n1cc(cn1)-c1cnc3cccc-2c3n1

>  <inchikey>  (1) 
ITDKIPHIFDPKIE-UHFFFAOYSA-N

>  <valid_rdkit>  (1) 
True

>  <unique_flag>  (1) 
True

>  <novel_flag>  (1) 
True

>  <mw>  (1) 
548.663

>  <logp>  (1) 
4.5367

>  <tpsa>  (1) 
68.1

>  <hbd>  (1) 
1

>  <hba>  (1) 
7

>  <rotatable_bonds>  (1) 
0

>  <qed>  (1) 
0.3462

>  <sa_score>  (1) 
5.254

>  <murcko_scaffold>  (1) 
c1cc2c3nc(cnc3c1)-c1cnn(c1)C1CCNCC1CSCC1COCCN1Cc1ccc-2cc1

>  <max_ring_size>  (1) 
19

>  <has_macrocycle_12_20>  (1) 
True

>  <has_constrained_ring_8_11>  (1) 
False

>  <passes_basic_filters>  (1) 
True

>  <generation_notes>  (1) 
v5_3_model_guided_anchor_pair=17-31;anchor_scores=0.079,0.079;linker_length=3;target_ring=18;linker_prob=0.496;chemotype=thioether

$$$$
