CAND_f14ad9ba35
     RDKit          3D

 55 60  0  0  0  0  0  0  0  0999 V2000
    6.1834    2.4444    0.7532 N   0  0  0  0  0  0  0  0  0  0  0  0
    5.9771    1.3072    0.8547 C   0  0  0  0  0  0  0  0  0  0  0  0
    5.7597   -0.1412    0.9902 C   0  0  2  0  0  0  0  0  0  0  0  0
    5.7481   -0.8407   -0.3708 C   0  0  0  0  0  0  0  0  0  0  0  0
    4.3068   -0.6975   -0.8452 C   0  0  0  0  0  0  0  0  0  0  0  0
    3.5257   -0.6667    0.3791 N   0  0  0  0  0  0  0  0  0  0  0  0
    2.1524   -0.7333    0.5045 C   0  0  0  0  0  0  0  0  0  0  0  0
    1.6214   -0.6652    1.6187 O   0  0  0  0  0  0  0  0  0  0  0  0
    1.3008   -0.8932   -0.7878 C   0  0  2  0  0  0  0  0  0  0  0  0
    0.3743    0.2109   -0.8713 N   0  0  0  0  0  0  0  0  0  0  0  0
    0.7417    1.4828   -1.2304 C   0  0  0  0  0  0  0  0  0  0  0  0
    1.8592    1.7687   -1.6465 O   0  0  0  0  0  0  0  0  0  0  0  0
   -0.3113    2.4684   -1.0233 C   0  0  0  0  0  0  0  0  0  0  0  0
   -0.2080    3.8439   -1.1814 C   0  0  0  0  0  0  0  0  0  0  0  0
   -1.4009    4.4184   -0.8016 N   0  0  0  0  0  0  0  0  0  0  0  0
   -2.2713    3.4441   -0.3979 C   0  0  0  0  0  0  0  0  0  0  0  0
   -3.5137    3.6208    0.0907 N   0  0  0  0  0  0  0  0  0  0  0  0
   -4.0769    2.4175    0.4095 C   0  0  0  0  0  0  0  0  0  0  0  0
   -3.4899    1.1531    0.2353 C   0  0  0  0  0  0  0  0  0  0  0  0
   -2.2389    1.0494   -0.2700 N   0  0  0  0  0  0  0  0  0  0  0  0
   -1.6333    2.2271   -0.5658 C   0  0  0  0  0  0  0  0  0  0  0  0
   -4.1873   -0.1562    0.6039 C   0  0  0  0  0  0  0  0  0  0  0  0
   -5.7086   -0.2687    0.5714 C   0  0  0  0  0  0  0  0  0  0  0  0
   -4.9077   -0.8858   -0.5286 C   0  0  0  0  0  0  0  0  0  0  0  0
   -3.4235   -1.0190    1.6069 C   0  0  0  0  0  0  0  0  0  0  0  0
   -2.6540   -2.0063    0.9119 O   0  0  0  0  0  0  0  0  0  0  0  0
   -1.2484   -1.8893    1.1303 C   0  0  0  0  0  0  0  0  0  0  0  0
   -0.5476   -2.7091    0.0873 C   0  0  0  0  0  0  0  0  0  0  0  0
   -0.7695   -2.4501   -1.3881 C   0  0  0  0  0  0  0  0  0  0  0  0
    0.6102   -2.2431   -0.8020 C   0  0  0  0  0  0  0  0  0  0  0  0
    4.3714   -0.4486    1.5439 C   0  0  0  0  0  0  0  0  0  0  0  0
    6.5400   -0.5524    1.6399 H   0  0  0  0  0  0  0  0  0  0  0  0
    6.4640   -0.4348   -1.0925 H   0  0  0  0  0  0  0  0  0  0  0  0
    5.9762   -1.9050   -0.2304 H   0  0  0  0  0  0  0  0  0  0  0  0
    4.0005   -1.5295   -1.4852 H   0  0  0  0  0  0  0  0  0  0  0  0
    4.1489    0.2459   -1.3774 H   0  0  0  0  0  0  0  0  0  0  0  0
    1.9324   -0.8335   -1.6773 H   0  0  0  0  0  0  0  0  0  0  0  0
   -0.5826    0.0747   -0.5635 H   0  0  0  0  0  0  0  0  0  0  0  0
    0.6248    4.4564   -1.5041 H   0  0  0  0  0  0  0  0  0  0  0  0
   -1.6106    5.4063   -0.7844 H   0  0  0  0  0  0  0  0  0  0  0  0
   -5.0738    2.5030    0.8323 H   0  0  0  0  0  0  0  0  0  0  0  0
   -6.3200    0.5868    0.3100 H   0  0  0  0  0  0  0  0  0  0  0  0
   -6.1970   -0.9404    1.2701 H   0  0  0  0  0  0  0  0  0  0  0  0
   -4.8373   -1.9680   -0.5681 H   0  0  0  0  0  0  0  0  0  0  0  0
   -4.9301   -0.4213   -1.5085 H   0  0  0  0  0  0  0  0  0  0  0  0
   -4.1296   -1.5635    2.2438 H   0  0  0  0  0  0  0  0  0  0  0  0
   -2.8079   -0.4055    2.2770 H   0  0  0  0  0  0  0  0  0  0  0  0
   -0.9443   -0.8441    1.1234 H   0  0  0  0  0  0  0  0  0  0  0  0
   -1.0180   -2.2892    2.1243 H   0  0  0  0  0  0  0  0  0  0  0  0
   -0.5479   -3.7538    0.3872 H   0  0  0  0  0  0  0  0  0  0  0  0
   -0.9264   -3.3120   -2.0285 H   0  0  0  0  0  0  0  0  0  0  0  0
   -1.3858   -1.6036   -1.6683 H   0  0  0  0  0  0  0  0  0  0  0  0
    1.3496   -3.0108   -1.0238 H   0  0  0  0  0  0  0  0  0  0  0  0
    4.3773   -1.3867    2.1115 H   0  0  0  0  0  0  0  0  0  0  0  0
    3.9559    0.3385    2.1828 H   0  0  0  0  0  0  0  0  0  0  0  0
  1  2  3  0
  2  3  1  0
  3  4  1  0
  4  5  1  0
  5  6  1  0
  6  7  1  0
  7  8  2  0
  7  9  1  0
  9 10  1  0
 10 11  1  0
 11 12  2  0
 11 13  1  0
 13 14  2  0
 14 15  1  0
 15 16  1  0
 16 17  2  0
 17 18  1  0
 18 19  2  0
 19 20  1  0
 20 21  2  0
 19 22  1  0
 22 23  1  0
 23 24  1  0
 22 25  1  0
 25 26  1  0
 26 27  1  0
 27 28  1  0
 28 29  1  0
 29 30  1  0
  6 31  1  0
 31  3  1  0
 30  9  1  0
 21 13  1  0
 24 22  1  0
 30 28  1  0
 21 16  1  0
  3 32  1  1
  4 33  1  0
  4 34  1  0
  5 35  1  0
  5 36  1  0
  9 37  1  6
 10 38  1  0
 14 39  1  0
 15 40  1  0
 18 41  1  0
 23 42  1  0
 23 43  1  0
 24 44  1  0
 24 45  1  0
 25 46  1  0
 25 47  1  0
 27 48  1  0
 27 49  1  0
 28 50  1  0
 29 51  1  0
 29 52  1  0
 30 53  1  0
 31 54  1  0
 31 55  1  0
M  END
>  <candidate_id>  (1) 
CAND_f14ad9ba35

>  <source_generator>  (1) 
v5_3_model_guided_macrocycle

>  <parent_mol_id>  (1) 
JAK2_69b6c7ad6e

>  <canonical_smiles>  (1) 
N#C[C@@H]1CCN(C(=O)[C@@H]2NC(=O)c3c[nH]c4ncc(nc34)C3(CC3)COCC3CC32)C1

>  <inchikey>  (1) 
FYCAHTMFAMULSV-SEBUGHOLSA-N

>  <valid_rdkit>  (1) 
True

>  <unique_flag>  (1) 
True

>  <novel_flag>  (1) 
True

>  <mw>  (1) 
420.473

>  <logp>  (1) 
1.1263

>  <tpsa>  (1) 
124.0

>  <hbd>  (1) 
2

>  <hba>  (1) 
6

>  <rotatable_bonds>  (1) 
1

>  <qed>  (1) 
0.7126

>  <sa_score>  (1) 
4.917

>  <murcko_scaffold>  (1) 
O=C1N[C@@H](C(=O)N2CCCC2)C2CC2COCC2(CC2)c2cnc3[nH]cc1c3n2

>  <max_ring_size>  (1) 
13

>  <has_macrocycle_12_20>  (1) 
True

>  <has_constrained_ring_8_11>  (1) 
False

>  <passes_basic_filters>  (1) 
True

>  <generation_notes>  (1) 
v5_3_model_guided_anchor_pair=19-25;anchor_scores=0.691,0.079;linker_length=3;target_ring=12;linker_prob=0.278;chemotype=oxa

$$$$
