CAND_453a8d70ca
     RDKit          3D

 61 66  0  0  0  0  0  0  0  0999 V2000
   -2.7564    0.2402   -0.0280 O   0  0  0  0  0  0  0  0  0  0  0  0
   -3.4409    0.2784    0.9891 C   0  0  0  0  0  0  0  0  0  0  0  0
   -4.1824    1.3713    1.4142 N   0  0  0  0  0  0  0  0  0  0  0  0
   -4.0684    2.6041    0.7907 C   0  0  0  0  0  0  0  0  0  0  0  0
   -5.1315    3.4351    0.5287 C   0  0  0  0  0  0  0  0  0  0  0  0
   -4.6445    4.4089   -0.2978 N   0  0  0  0  0  0  0  0  0  0  0  0
   -3.3271    4.3038   -0.5478 N   0  0  0  0  0  0  0  0  0  0  0  0
   -2.9511    3.2688    0.2211 C   0  0  0  0  0  0  0  0  0  0  0  0
   -1.4457    2.9383    0.4568 C   0  0  0  0  0  0  0  0  0  0  0  0
   -0.9522    2.2933    1.4963 N   0  0  0  0  0  0  0  0  0  0  0  0
    0.3813    2.1410    1.2182 C   0  0  0  0  0  0  0  0  0  0  0  0
    1.3752    1.4927    1.9614 C   0  0  0  0  0  0  0  0  0  0  0  0
    2.6107    1.2548    1.3478 C   0  0  0  0  0  0  0  0  0  0  0  0
    2.8485    1.6485    0.0163 C   0  0  0  0  0  0  0  0  0  0  0  0
    1.9201    2.4603   -0.6651 C   0  0  0  0  0  0  0  0  0  0  0  0
    0.6950    2.6718   -0.0288 C   0  0  0  0  0  0  0  0  0  0  0  0
   -0.4556    3.3109   -0.4131 N   0  0  0  0  0  0  0  0  0  0  0  0
    4.0401    1.0774   -0.7246 C   0  0  0  0  0  0  0  0  0  0  0  0
    3.7093    0.1136   -1.8185 N   0  0  0  0  0  0  0  0  0  0  0  0
    4.9987   -0.3231   -2.4278 C   0  0  0  0  0  0  0  0  0  0  0  0
    5.6119   -1.6069   -1.8175 C   0  0  0  0  0  0  0  0  0  0  0  0
    5.2386   -1.7803   -0.4478 O   0  0  0  0  0  0  0  0  0  0  0  0
    3.8073   -1.9033   -0.2915 C   0  0  0  0  0  0  0  0  0  0  0  0
    3.0094   -1.1456   -1.3829 C   0  0  0  0  0  0  0  0  0  0  0  0
    1.4931   -1.0042   -1.0743 C   0  0  0  0  0  0  0  0  0  0  0  0
    0.8508   -2.2037   -0.5191 N   0  0  0  0  0  0  0  0  0  0  0  0
   -0.4747   -1.8493   -0.0073 C   0  0  0  0  0  0  0  0  0  0  0  0
   -0.9865   -2.9481    0.7340 O   0  0  0  0  0  0  0  0  0  0  0  0
   -1.7926   -2.5263    1.8404 C   0  0  0  0  0  0  0  0  0  0  0  0
   -3.2221   -2.1635    1.4301 C   0  0  0  0  0  0  0  0  0  0  0  0
   -4.2623   -3.2700    1.5628 C   0  0  0  0  0  0  0  0  0  0  0  0
   -3.8310   -2.8295    0.2046 C   0  0  0  0  0  0  0  0  0  0  0  0
   -3.6601   -0.8283    1.7876 N   0  0  0  0  0  0  0  0  0  0  0  0
   -5.0333    1.1768    1.9169 H   0  0  0  0  0  0  0  0  0  0  0  0
   -6.1835    3.3791    0.7653 H   0  0  0  0  0  0  0  0  0  0  0  0
   -5.1569    5.1651   -0.7401 H   0  0  0  0  0  0  0  0  0  0  0  0
    1.1524    1.0976    2.9456 H   0  0  0  0  0  0  0  0  0  0  0  0
    3.3483    0.6592    1.8826 H   0  0  0  0  0  0  0  0  0  0  0  0
    2.0976    2.7883   -1.6842 H   0  0  0  0  0  0  0  0  0  0  0  0
   -0.6247    3.7911   -1.2839 H   0  0  0  0  0  0  0  0  0  0  0  0
    4.5567    1.9394   -1.1699 H   0  0  0  0  0  0  0  0  0  0  0  0
    4.7508    0.6527   -0.0054 H   0  0  0  0  0  0  0  0  0  0  0  0
    4.8329   -0.5017   -3.4979 H   0  0  0  0  0  0  0  0  0  0  0  0
    5.7396    0.4862   -2.3943 H   0  0  0  0  0  0  0  0  0  0  0  0
    6.7044   -1.5543   -1.8656 H   0  0  0  0  0  0  0  0  0  0  0  0
    5.3019   -2.4954   -2.3809 H   0  0  0  0  0  0  0  0  0  0  0  0
    3.5647   -1.5392    0.7111 H   0  0  0  0  0  0  0  0  0  0  0  0
    3.5692   -2.9726   -0.3219 H   0  0  0  0  0  0  0  0  0  0  0  0
    3.0156   -1.7987   -2.2704 H   0  0  0  0  0  0  0  0  0  0  0  0
    1.3456   -0.2175   -0.3506 H   0  0  0  0  0  0  0  0  0  0  0  0
    0.9699   -0.6943   -1.9881 H   0  0  0  0  0  0  0  0  0  0  0  0
    0.7214   -2.9109   -1.2379 H   0  0  0  0  0  0  0  0  0  0  0  0
   -0.4016   -0.9632    0.6323 H   0  0  0  0  0  0  0  0  0  0  0  0
   -1.1556   -1.6379   -0.8381 H   0  0  0  0  0  0  0  0  0  0  0  0
   -1.8277   -3.3714    2.5376 H   0  0  0  0  0  0  0  0  0  0  0  0
   -1.3076   -1.7095    2.3897 H   0  0  0  0  0  0  0  0  0  0  0  0
   -5.2654   -3.0094    1.8789 H   0  0  0  0  0  0  0  0  0  0  0  0
   -3.9431   -4.2535    1.8902 H   0  0  0  0  0  0  0  0  0  0  0  0
   -4.5220   -2.2512   -0.3978 H   0  0  0  0  0  0  0  0  0  0  0  0
   -3.2173   -3.5075   -0.3782 H   0  0  0  0  0  0  0  0  0  0  0  0
   -4.0372   -0.6784    2.7119 H   0  0  0  0  0  0  0  0  0  0  0  0
  1  2  2  0
  2  3  1  0
  3  4  1  0
  4  5  2  0
  5  6  1  0
  6  7  1  0
  7  8  2  0
  8  9  1  0
  9 10  2  0
 10 11  1  0
 11 12  2  0
 12 13  1  0
 13 14  2  0
 14 15  1  0
 15 16  2  0
 16 17  1  0
 14 18  1  0
 18 19  1  0
 19 20  1  0
 20 21  1  0
 21 22  1  0
 22 23  1  0
 23 24  1  0
 24 25  1  0
 25 26  1  0
 26 27  1  0
 27 28  1  0
 28 29  1  0
 29 30  1  0
 30 31  1  0
 31 32  1  0
 30 33  1  0
 33  2  1  0
  8  4  1  0
 17  9  1  0
 24 19  1  0
 32 30  1  0
 16 11  1  0
  3 34  1  0
  5 35  1  0
  6 36  1  0
 12 37  1  0
 13 38  1  0
 15 39  1  0
 17 40  1  0
 18 41  1  0
 18 42  1  0
 20 43  1  0
 20 44  1  0
 21 45  1  0
 21 46  1  0
 23 47  1  0
 23 48  1  0
 24 49  1  0
 25 50  1  0
 25 51  1  0
 26 52  1  0
 27 53  1  0
 27 54  1  0
 29 55  1  0
 29 56  1  0
 31 57  1  0
 31 58  1  0
 32 59  1  0
 32 60  1  0
 33 61  1  0
M  END
>  <candidate_id>  (1) 
CAND_453a8d70ca

>  <source_generator>  (1) 
v5_3_model_guided_macrocycle

>  <parent_mol_id>  (1) 
JAK2_dbe7510318

>  <canonical_smiles>  (1) 
O=C1Nc2c[nH]nc2-c2nc3ccc(cc3[nH]2)CN2CCOCC2CNCOCC2(CC2)N1

>  <inchikey>  (1) 
IZSUYVKQMSNHRR-UHFFFAOYSA-N

>  <valid_rdkit>  (1) 
True

>  <unique_flag>  (1) 
True

>  <novel_flag>  (1) 
True

>  <mw>  (1) 
452.519

>  <logp>  (1) 
1.3852

>  <tpsa>  (1) 
132.22

>  <hbd>  (1) 
5

>  <hba>  (1) 
7

>  <rotatable_bonds>  (1) 
0

>  <qed>  (1) 
0.3482

>  <sa_score>  (1) 
4.22

>  <murcko_scaffold>  (1) 
O=C1Nc2c[nH]nc2-c2nc3ccc(cc3[nH]2)CN2CCOCC2CNCOCC2(CC2)N1

>  <max_ring_size>  (1) 
19

>  <has_macrocycle_12_20>  (1) 
True

>  <has_constrained_ring_8_11>  (1) 
False

>  <passes_basic_filters>  (1) 
True

>  <generation_notes>  (1) 
v5_3_model_guided_anchor_pair=25-16;anchor_scores=0.691,0.079;linker_length=5;target_ring=18;linker_prob=0.200;chemotype=oxa_aza

$$$$
