CAND_826c88beb5
     RDKit          3D

 59 63  0  0  0  0  0  0  0  0999 V2000
   -3.7423    0.9023    2.3995 C   0  0  0  0  0  0  0  0  0  0  0  0
   -2.8160   -0.3121    2.1582 C   0  0  0  0  0  0  0  0  0  0  0  0
   -3.6744   -1.5834    2.3135 C   0  0  0  0  0  0  0  0  0  0  0  0
   -1.7302   -0.2965    3.2517 C   0  0  0  0  0  0  0  0  0  0  0  0
   -2.2367   -0.2310    0.7144 C   0  0  1  0  0  0  0  0  0  0  0  0
   -1.3475    0.9168    0.5342 N   0  0  0  0  0  0  0  0  0  0  0  0
   -1.6585    2.0107   -0.2329 C   0  0  0  0  0  0  0  0  0  0  0  0
   -2.7963    2.2726   -0.6064 O   0  0  0  0  0  0  0  0  0  0  0  0
   -0.4992    2.7891   -0.6432 C   0  0  0  0  0  0  0  0  0  0  0  0
   -0.5224    4.0199   -1.2859 C   0  0  0  0  0  0  0  0  0  0  0  0
    0.7707    4.3829   -1.5822 N   0  0  0  0  0  0  0  0  0  0  0  0
    1.6262    3.3975   -1.1760 C   0  0  0  0  0  0  0  0  0  0  0  0
    2.9593    3.3705   -1.3613 N   0  0  0  0  0  0  0  0  0  0  0  0
    3.4874    2.2209   -0.8553 C   0  0  0  0  0  0  0  0  0  0  0  0
    2.7736    1.2002   -0.2063 C   0  0  0  0  0  0  0  0  0  0  0  0
    1.4298    1.2910   -0.0374 N   0  0  0  0  0  0  0  0  0  0  0  0
    0.8685    2.4149   -0.5566 C   0  0  0  0  0  0  0  0  0  0  0  0
    3.4680   -0.0501    0.3265 C   0  0  0  0  0  0  0  0  0  0  0  0
    3.4301   -1.2708   -0.5894 C   0  0  0  0  0  0  0  0  0  0  0  0
    2.0578   -1.9638   -0.6223 C   0  0  0  0  0  0  0  0  0  0  0  0
    1.2554   -1.6413   -1.8856 C   0  0  0  0  0  0  0  0  0  0  0  0
   -0.1444   -2.2698   -1.8533 C   0  0  0  0  0  0  0  0  0  0  0  0
   -1.0071   -1.9331   -3.0980 C   0  0  0  0  0  0  0  0  0  0  0  0
   -1.8685   -3.0017   -3.5570 C   0  0  0  0  0  0  0  0  0  0  0  0
   -2.5557   -3.8532   -3.9428 N   0  0  0  0  0  0  0  0  0  0  0  0
   -1.7019   -0.8469   -2.2537 C   0  0  0  0  0  0  0  0  0  0  0  0
   -1.0993   -1.4723   -1.0956 N   0  0  0  0  0  0  0  0  0  0  0  0
   -1.3629   -1.4278    0.2504 C   0  0  0  0  0  0  0  0  0  0  0  0
   -0.8508   -2.2358    1.0229 O   0  0  0  0  0  0  0  0  0  0  0  0
    4.6897    0.1248    1.2215 C   0  0  0  0  0  0  0  0  0  0  0  0
    3.3914   -0.3089    1.8259 C   0  0  0  0  0  0  0  0  0  0  0  0
   -4.5335    0.9534    1.6431 H   0  0  0  0  0  0  0  0  0  0  0  0
   -3.1871    1.8460    2.3709 H   0  0  0  0  0  0  0  0  0  0  0  0
   -4.2275    0.8416    3.3807 H   0  0  0  0  0  0  0  0  0  0  0  0
   -4.1741   -1.6053    3.2890 H   0  0  0  0  0  0  0  0  0  0  0  0
   -3.0750   -2.4959    2.2405 H   0  0  0  0  0  0  0  0  0  0  0  0
   -4.4519   -1.6304    1.5427 H   0  0  0  0  0  0  0  0  0  0  0  0
   -1.1094    0.6039    3.1922 H   0  0  0  0  0  0  0  0  0  0  0  0
   -2.1840   -0.3102    4.2499 H   0  0  0  0  0  0  0  0  0  0  0  0
   -1.0683   -1.1643    3.1933 H   0  0  0  0  0  0  0  0  0  0  0  0
   -3.0731   -0.1462    0.0095 H   0  0  0  0  0  0  0  0  0  0  0  0
   -0.3701    0.7886    0.7964 H   0  0  0  0  0  0  0  0  0  0  0  0
   -1.3549    4.6527   -1.5679 H   0  0  0  0  0  0  0  0  0  0  0  0
    1.0632    5.2221   -2.0629 H   0  0  0  0  0  0  0  0  0  0  0  0
    4.5627    2.1298   -0.9858 H   0  0  0  0  0  0  0  0  0  0  0  0
    4.1629   -2.0044   -0.2280 H   0  0  0  0  0  0  0  0  0  0  0  0
    3.7592   -0.9913   -1.5977 H   0  0  0  0  0  0  0  0  0  0  0  0
    1.4868   -1.7129    0.2751 H   0  0  0  0  0  0  0  0  0  0  0  0
    2.2133   -3.0500   -0.5935 H   0  0  0  0  0  0  0  0  0  0  0  0
    1.8000   -2.0414   -2.7504 H   0  0  0  0  0  0  0  0  0  0  0  0
    1.1917   -0.5582   -2.0365 H   0  0  0  0  0  0  0  0  0  0  0  0
   -0.1419   -3.3290   -1.5701 H   0  0  0  0  0  0  0  0  0  0  0  0
   -0.4317   -1.5060   -3.9296 H   0  0  0  0  0  0  0  0  0  0  0  0
   -2.7952   -0.8596   -2.2547 H   0  0  0  0  0  0  0  0  0  0  0  0
   -1.3393    0.1688   -2.4336 H   0  0  0  0  0  0  0  0  0  0  0  0
    5.4889   -0.6066    1.1661 H   0  0  0  0  0  0  0  0  0  0  0  0
    5.0385    1.1224    1.4666 H   0  0  0  0  0  0  0  0  0  0  0  0
    2.8512    0.3997    2.4454 H   0  0  0  0  0  0  0  0  0  0  0  0
    3.3050   -1.3334    2.1720 H   0  0  0  0  0  0  0  0  0  0  0  0
  1  2  1  0
  2  3  1  0
  2  4  1  0
  2  5  1  0
  5  6  1  0
  6  7  1  0
  7  8  2  0
  7  9  1  0
  9 10  2  0
 10 11  1  0
 11 12  1  0
 12 13  2  0
 13 14  1  0
 14 15  2  0
 15 16  1  0
 16 17  2  0
 15 18  1  0
 18 19  1  0
 19 20  1  0
 20 21  1  0
 21 22  1  0
 22 23  1  0
 23 24  1  0
 24 25  3  0
 23 26  1  0
 26 27  1  0
 27 28  1  0
 28 29  2  0
 18 30  1  0
 30 31  1  0
 28  5  1  0
 17  9  1  0
 31 18  1  0
 17 12  1  0
 27 22  1  0
  1 32  1  0
  1 33  1  0
  1 34  1  0
  3 35  1  0
  3 36  1  0
  3 37  1  0
  4 38  1  0
  4 39  1  0
  4 40  1  0
  5 41  1  6
  6 42  1  0
 10 43  1  0
 11 44  1  0
 14 45  1  0
 19 46  1  0
 19 47  1  0
 20 48  1  0
 20 49  1  0
 21 50  1  0
 21 51  1  0
 22 52  1  0
 23 53  1  0
 26 54  1  0
 26 55  1  0
 30 56  1  0
 30 57  1  0
 31 58  1  0
 31 59  1  0
M  END
>  <candidate_id>  (1) 
CAND_826c88beb5

>  <source_generator>  (1) 
v5_3_model_guided_macrocycle

>  <parent_mol_id>  (1) 
JAK2_1a53985c87

>  <canonical_smiles>  (1) 
CC(C)(C)[C@H]1NC(=O)c2c[nH]c3ncc(nc23)C2(CCCC3C(C#N)CN3C1=O)CC2

>  <inchikey>  (1) 
MZARHELMJIUXBU-RWKZGTHUSA-N

>  <valid_rdkit>  (1) 
True

>  <unique_flag>  (1) 
True

>  <novel_flag>  (1) 
True

>  <mw>  (1) 
420.517

>  <logp>  (1) 
2.6685

>  <tpsa>  (1) 
114.77

>  <hbd>  (1) 
2

>  <hba>  (1) 
5

>  <rotatable_bonds>  (1) 
0

>  <qed>  (1) 
0.6799

>  <sa_score>  (1) 
4.542

>  <murcko_scaffold>  (1) 
O=C1NCC(=O)N2CCC2CCCC2(CC2)c2cnc3[nH]cc1c3n2

>  <max_ring_size>  (1) 
14

>  <has_macrocycle_12_20>  (1) 
True

>  <has_constrained_ring_8_11>  (1) 
False

>  <passes_basic_filters>  (1) 
True

>  <generation_notes>  (1) 
v5_3_model_guided_anchor_pair=15-23;anchor_scores=0.691,0.079;linker_length=3;target_ring=13;linker_prob=0.353;chemotype=oxa_aza

$$$$
