CAND_d905c29100
     RDKit          3D

 76 81  0  0  0  0  0  0  0  0999 V2000
    6.9938   -0.6080    1.7789 C   0  0  0  0  0  0  0  0  0  0  0  0
    5.6986   -1.3064    1.5271 C   0  0  0  0  0  0  0  0  0  0  0  0
    5.4342   -2.5427    2.0737 C   0  0  0  0  0  0  0  0  0  0  0  0
    4.2932   -3.2289    1.8754 N   0  0  0  0  0  0  0  0  0  0  0  0
    3.3620   -2.6578    1.0971 C   0  0  0  0  0  0  0  0  0  0  0  0
    3.5277   -1.4637    0.5187 N   0  0  0  0  0  0  0  0  0  0  0  0
    4.6911   -0.8059    0.7191 C   0  0  0  0  0  0  0  0  0  0  0  0
    4.7975    0.4645   -0.0112 C   0  0  0  0  0  0  0  0  0  0  0  0
    5.6688    0.5927   -1.1046 C   0  0  0  0  0  0  0  0  0  0  0  0
    5.7736    1.7976   -1.7998 C   0  0  0  0  0  0  0  0  0  0  0  0
    5.0002    2.8923   -1.4177 C   0  0  0  0  0  0  0  0  0  0  0  0
    4.1035    2.7911   -0.3456 C   0  0  0  0  0  0  0  0  0  0  0  0
    4.0182    1.5756    0.3548 C   0  0  0  0  0  0  0  0  0  0  0  0
    3.2872    3.9941    0.0671 C   0  0  0  0  0  0  0  0  0  0  0  0
    1.9570    3.6827    0.4792 O   0  0  0  0  0  0  0  0  0  0  0  0
    1.1250    3.2645   -0.6032 C   0  0  0  0  0  0  0  0  0  0  0  0
   -0.2888    3.3346   -0.1125 C   0  0  0  0  0  0  0  0  0  0  0  0
   -1.1334    2.3030    0.1112 C   0  0  0  0  0  0  0  0  0  0  0  0
   -2.4994    2.5568    0.7173 C   0  0  0  0  0  0  0  0  0  0  0  0
   -3.5895    2.6897   -0.2489 N   0  0  0  0  0  0  0  0  0  0  0  0
   -4.0565    1.4412   -0.8595 C   0  0  0  0  0  0  0  0  0  0  0  0
   -5.2087    0.7081   -0.1240 C   0  0  0  0  0  0  0  0  0  0  0  0
   -4.9338    0.2999    1.3215 C   0  0  0  0  0  0  0  0  0  0  0  0
   -5.8678   -0.8708    1.5959 C   0  0  0  0  0  0  0  0  0  0  0  0
   -6.5227   -1.2001    0.2638 C   0  0  0  0  0  0  0  0  0  0  0  0
   -5.7400   -0.5177   -0.7684 N   0  0  0  0  0  0  0  0  0  0  0  0
   -4.7853   -1.3916   -1.4654 C   0  0  0  0  0  0  0  0  0  0  0  0
   -3.6951   -2.1184   -0.6569 C   0  0  0  0  0  0  0  0  0  0  0  0
   -2.7359   -2.6665   -1.5810 O   0  0  0  0  0  0  0  0  0  0  0  0
   -1.5151   -2.8145   -0.9750 C   0  0  0  0  0  0  0  0  0  0  0  0
   -1.2722   -3.9639   -0.2289 C   0  0  0  0  0  0  0  0  0  0  0  0
   -0.0314   -4.1390    0.3898 C   0  0  0  0  0  0  0  0  0  0  0  0
    0.9933   -3.1879    0.2581 C   0  0  0  0  0  0  0  0  0  0  0  0
    0.7355   -2.0620   -0.5325 C   0  0  0  0  0  0  0  0  0  0  0  0
   -0.5155   -1.8495   -1.1435 C   0  0  0  0  0  0  0  0  0  0  0  0
   -0.7449   -0.6048   -1.9679 C   0  0  0  0  0  0  0  0  0  0  0  0
   -0.2747    0.6110   -1.3778 O   0  0  0  0  0  0  0  0  0  0  0  0
   -0.7292    0.8553   -0.0476 C   0  0  0  0  0  0  0  0  0  0  0  0
    2.1972   -3.4034    0.9358 N   0  0  0  0  0  0  0  0  0  0  0  0
    6.8311    0.4501    2.0085 H   0  0  0  0  0  0  0  0  0  0  0  0
    7.5167   -1.0424    2.6380 H   0  0  0  0  0  0  0  0  0  0  0  0
    7.6493   -0.6935    0.9068 H   0  0  0  0  0  0  0  0  0  0  0  0
    6.1557   -3.0444    2.7134 H   0  0  0  0  0  0  0  0  0  0  0  0
    6.2649   -0.2581   -1.4285 H   0  0  0  0  0  0  0  0  0  0  0  0
    6.4532    1.8796   -2.6441 H   0  0  0  0  0  0  0  0  0  0  0  0
    5.0954    3.8245   -1.9705 H   0  0  0  0  0  0  0  0  0  0  0  0
    3.3229    1.4881    1.1898 H   0  0  0  0  0  0  0  0  0  0  0  0
    3.2495    4.7443   -0.7321 H   0  0  0  0  0  0  0  0  0  0  0  0
    3.7887    4.4632    0.9213 H   0  0  0  0  0  0  0  0  0  0  0  0
    1.2319    3.9462   -1.4550 H   0  0  0  0  0  0  0  0  0  0  0  0
    1.4227    2.2644   -0.9215 H   0  0  0  0  0  0  0  0  0  0  0  0
   -0.6325    4.3468    0.0922 H   0  0  0  0  0  0  0  0  0  0  0  0
   -2.7161    1.8127    1.4882 H   0  0  0  0  0  0  0  0  0  0  0  0
   -2.4653    3.5042    1.2718 H   0  0  0  0  0  0  0  0  0  0  0  0
   -3.2587    3.3099   -0.9895 H   0  0  0  0  0  0  0  0  0  0  0  0
   -4.4410    1.7057   -1.8539 H   0  0  0  0  0  0  0  0  0  0  0  0
   -3.2216    0.7712   -1.0486 H   0  0  0  0  0  0  0  0  0  0  0  0
   -6.0509    1.4158   -0.0995 H   0  0  0  0  0  0  0  0  0  0  0  0
   -5.1269    1.1254    2.0151 H   0  0  0  0  0  0  0  0  0  0  0  0
   -3.9007   -0.0235    1.4748 H   0  0  0  0  0  0  0  0  0  0  0  0
   -6.6190   -0.6110    2.3492 H   0  0  0  0  0  0  0  0  0  0  0  0
   -5.2964   -1.7249    1.9763 H   0  0  0  0  0  0  0  0  0  0  0  0
   -7.5400   -0.7896    0.2519 H   0  0  0  0  0  0  0  0  0  0  0  0
   -6.6224   -2.2794    0.1039 H   0  0  0  0  0  0  0  0  0  0  0  0
   -5.3603   -2.1582   -2.0035 H   0  0  0  0  0  0  0  0  0  0  0  0
   -4.3146   -0.8261   -2.2794 H   0  0  0  0  0  0  0  0  0  0  0  0
   -4.1334   -2.9358   -0.0731 H   0  0  0  0  0  0  0  0  0  0  0  0
   -3.2003   -1.4239    0.0250 H   0  0  0  0  0  0  0  0  0  0  0  0
   -2.0423   -4.7224   -0.1244 H   0  0  0  0  0  0  0  0  0  0  0  0
    0.1295   -5.0362    0.9829 H   0  0  0  0  0  0  0  0  0  0  0  0
    1.5053   -1.3079   -0.6814 H   0  0  0  0  0  0  0  0  0  0  0  0
   -0.2177   -0.7246   -2.9214 H   0  0  0  0  0  0  0  0  0  0  0  0
   -1.7996   -0.4670   -2.2179 H   0  0  0  0  0  0  0  0  0  0  0  0
   -1.5581    0.1972    0.2262 H   0  0  0  0  0  0  0  0  0  0  0  0
    0.0915    0.6339    0.6451 H   0  0  0  0  0  0  0  0  0  0  0  0
    2.2915   -4.2658    1.4507 H   0  0  0  0  0  0  0  0  0  0  0  0
  1  2  1  0
  2  3  2  0
  3  4  1  0
  4  5  2  0
  5  6  1  0
  6  7  2  0
  7  8  1  0
  8  9  2  0
  9 10  1  0
 10 11  2  0
 11 12  1  0
 12 13  2  0
 12 14  1  0
 14 15  1  0
 15 16  1  0
 16 17  1  0
 17 18  2  3
 18 19  1  0
 19 20  1  0
 20 21  1  0
 21 22  1  0
 22 23  1  0
 23 24  1  0
 24 25  1  0
 25 26  1  0
 26 27  1  0
 27 28  1  0
 28 29  1  0
 29 30  1  0
 30 31  2  0
 31 32  1  0
 32 33  2  0
 33 34  1  0
 34 35  2  0
 35 36  1  0
 36 37  1  0
 37 38  1  0
 33 39  1  0
  7  2  1  0
 13  8  1  0
 38 18  1  0
 39  5  1  0
 26 22  1  0
 35 30  1  0
  1 40  1  0
  1 41  1  0
  1 42  1  0
  3 43  1  0
  9 44  1  0
 10 45  1  0
 11 46  1  0
 13 47  1  0
 14 48  1  0
 14 49  1  0
 16 50  1  0
 16 51  1  0
 17 52  1  0
 19 53  1  0
 19 54  1  0
 20 55  1  0
 21 56  1  0
 21 57  1  0
 22 58  1  0
 23 59  1  0
 23 60  1  0
 24 61  1  0
 24 62  1  0
 25 63  1  0
 25 64  1  0
 27 65  1  0
 27 66  1  0
 28 67  1  0
 28 68  1  0
 31 69  1  0
 32 70  1  0
 34 71  1  0
 36 72  1  0
 36 73  1  0
 38 74  1  0
 38 75  1  0
 39 76  1  0
M  END
>  <candidate_id>  (1) 
CAND_d905c29100

>  <source_generator>  (1) 
v5_3_model_guided_macrocycle

>  <parent_mol_id>  (1) 
JAK2_5e05d7987e

>  <canonical_smiles>  (1) 
Cc1cnc2nc1-c1cccc(c1)COCC=C1CNCC3CCCN3CCOc3ccc(cc3COC1)N2

>  <inchikey>  (1) 
YZQDCHKDCNVASZ-UHFFFAOYSA-N

>  <valid_rdkit>  (1) 
True

>  <unique_flag>  (1) 
True

>  <novel_flag>  (1) 
True

>  <mw>  (1) 
527.669

>  <logp>  (1) 
4.6152

>  <tpsa>  (1) 
80.77

>  <hbd>  (1) 
2

>  <hba>  (1) 
8

>  <rotatable_bonds>  (1) 
0

>  <qed>  (1) 
0.4104

>  <sa_score>  (1) 
4.637

>  <murcko_scaffold>  (1) 
C1=C2CNCC3CCCN3CCOc3ccc(cc3COC2)Nc2nccc(n2)-c2cccc(c2)COC1

>  <max_ring_size>  (1) 
18

>  <has_macrocycle_12_20>  (1) 
True

>  <has_constrained_ring_8_11>  (1) 
False

>  <passes_basic_filters>  (1) 
True

>  <generation_notes>  (1) 
v5_3_model_guided_anchor_pair=17-31;anchor_scores=0.312,0.079;linker_length=3;target_ring=13;linker_prob=0.563;chemotype=aza

$$$$
