CAND_a8632b2da2
     RDKit          3D

 69 74  0  0  0  0  0  0  0  0999 V2000
    0.5885    2.1018   -2.8462 C   0  0  0  0  0  0  0  0  0  0  0  0
   -0.3202    2.6749   -2.0259 C   0  0  0  0  0  0  0  0  0  0  0  0
   -0.5238    4.1692   -2.0559 C   0  0  0  0  0  0  0  0  0  0  0  0
    0.5935    4.8682   -1.5066 O   0  0  0  0  0  0  0  0  0  0  0  0
    0.6272    4.8829   -0.0798 C   0  0  0  0  0  0  0  0  0  0  0  0
    1.7597    4.0121    0.3657 C   0  0  0  0  0  0  0  0  0  0  0  0
    3.0839    4.0588   -0.0227 C   0  0  0  0  0  0  0  0  0  0  0  0
    3.8724    3.0515    0.6070 C   0  0  0  0  0  0  0  0  0  0  0  0
    3.1262    2.2519    1.4492 C   0  0  0  0  0  0  0  0  0  0  0  0
    1.4949    2.7737    1.5158 S   0  0  0  0  0  0  0  0  0  0  0  0
    3.5402    1.0881    2.2274 C   0  0  0  0  0  0  0  0  0  0  0  0
    4.5254    1.1507    3.1812 C   0  0  0  0  0  0  0  0  0  0  0  0
    4.7864   -0.0349    3.8208 C   0  0  0  0  0  0  0  0  0  0  0  0
    4.1535   -1.1926    3.5436 N   0  0  0  0  0  0  0  0  0  0  0  0
    3.2273   -1.1648    2.5724 C   0  0  0  0  0  0  0  0  0  0  0  0
    2.8973   -0.0492    1.9144 N   0  0  0  0  0  0  0  0  0  0  0  0
    2.5795   -2.3667    2.2976 N   0  0  0  0  0  0  0  0  0  0  0  0
    1.6856   -2.7155    1.2795 C   0  0  0  0  0  0  0  0  0  0  0  0
    0.7901   -3.7698    1.4785 C   0  0  0  0  0  0  0  0  0  0  0  0
   -0.1949   -4.0747    0.5281 C   0  0  0  0  0  0  0  0  0  0  0  0
   -0.3176   -3.3160   -0.6377 C   0  0  0  0  0  0  0  0  0  0  0  0
    0.6152   -2.3024   -0.8960 C   0  0  0  0  0  0  0  0  0  0  0  0
    1.5896   -2.0074    0.0774 C   0  0  0  0  0  0  0  0  0  0  0  0
    0.6297   -1.5234   -2.1898 C   0  0  0  0  0  0  0  0  0  0  0  0
    0.6502   -0.1277   -1.8974 O   0  0  0  0  0  0  0  0  0  0  0  0
    0.9282    0.6525   -3.0468 C   0  0  0  0  0  0  0  0  0  0  0  0
   -1.2784   -3.5264   -1.5865 O   0  0  0  0  0  0  0  0  0  0  0  0
   -2.5920   -3.8823   -1.1457 C   0  0  0  0  0  0  0  0  0  0  0  0
   -3.5962   -2.7079   -1.2392 C   0  0  0  0  0  0  0  0  0  0  0  0
   -3.6568   -1.6920   -0.1775 N   0  0  0  0  0  0  0  0  0  0  0  0
   -3.6228   -2.1984    1.1892 C   0  0  0  0  0  0  0  0  0  0  0  0
   -3.3836   -0.9379    1.9902 C   0  0  0  0  0  0  0  0  0  0  0  0
   -2.3480   -0.2101    1.1528 C   0  0  0  0  0  0  0  0  0  0  0  0
   -2.6652   -0.6050   -0.3006 C   0  0  0  0  0  0  0  0  0  0  0  0
   -3.2267    0.5918   -1.1053 C   0  0  0  0  0  0  0  0  0  0  0  0
   -2.2413    1.2924   -1.8749 O   0  0  0  0  0  0  0  0  0  0  0  0
   -1.2267    1.9170   -1.0935 C   0  0  0  0  0  0  0  0  0  0  0  0
    1.1619    2.7653   -3.4928 H   0  0  0  0  0  0  0  0  0  0  0  0
   -0.6154    4.4918   -3.1006 H   0  0  0  0  0  0  0  0  0  0  0  0
   -1.4539    4.4858   -1.5698 H   0  0  0  0  0  0  0  0  0  0  0  0
    0.8346    5.9133    0.2295 H   0  0  0  0  0  0  0  0  0  0  0  0
   -0.3348    4.5984    0.3610 H   0  0  0  0  0  0  0  0  0  0  0  0
    3.4582    4.7698   -0.7489 H   0  0  0  0  0  0  0  0  0  0  0  0
    4.9257    2.8951    0.4125 H   0  0  0  0  0  0  0  0  0  0  0  0
    5.0446    2.0652    3.4277 H   0  0  0  0  0  0  0  0  0  0  0  0
    5.5344   -0.0944    4.6057 H   0  0  0  0  0  0  0  0  0  0  0  0
    2.8328   -3.0706    2.9717 H   0  0  0  0  0  0  0  0  0  0  0  0
    0.8341   -4.3575    2.3918 H   0  0  0  0  0  0  0  0  0  0  0  0
   -0.8480   -4.9176    0.7263 H   0  0  0  0  0  0  0  0  0  0  0  0
    2.2848   -1.1969   -0.1324 H   0  0  0  0  0  0  0  0  0  0  0  0
   -0.2489   -1.7318   -2.8091 H   0  0  0  0  0  0  0  0  0  0  0  0
    1.5265   -1.8066   -2.7540 H   0  0  0  0  0  0  0  0  0  0  0  0
    0.3754    0.2830   -3.9173 H   0  0  0  0  0  0  0  0  0  0  0  0
    1.9998    0.5696   -3.2565 H   0  0  0  0  0  0  0  0  0  0  0  0
   -2.9306   -4.6465   -1.8568 H   0  0  0  0  0  0  0  0  0  0  0  0
   -2.6338   -4.3737   -0.1715 H   0  0  0  0  0  0  0  0  0  0  0  0
   -4.5961   -3.1589   -1.2718 H   0  0  0  0  0  0  0  0  0  0  0  0
   -3.4679   -2.2077   -2.2069 H   0  0  0  0  0  0  0  0  0  0  0  0
   -4.5609   -2.6852    1.4706 H   0  0  0  0  0  0  0  0  0  0  0  0
   -2.7960   -2.8903    1.3708 H   0  0  0  0  0  0  0  0  0  0  0  0
   -3.0262   -1.1434    3.0032 H   0  0  0  0  0  0  0  0  0  0  0  0
   -4.3017   -0.3427    2.0615 H   0  0  0  0  0  0  0  0  0  0  0  0
   -2.3725    0.8662    1.3448 H   0  0  0  0  0  0  0  0  0  0  0  0
   -1.3490   -0.5759    1.4197 H   0  0  0  0  0  0  0  0  0  0  0  0
   -1.7500   -0.9515   -0.7758 H   0  0  0  0  0  0  0  0  0  0  0  0
   -3.7669    1.3016   -0.4683 H   0  0  0  0  0  0  0  0  0  0  0  0
   -3.9503    0.2280   -1.8438 H   0  0  0  0  0  0  0  0  0  0  0  0
   -0.6625    1.1889   -0.5086 H   0  0  0  0  0  0  0  0  0  0  0  0
   -1.6974    2.5970   -0.3747 H   0  0  0  0  0  0  0  0  0  0  0  0
  1  2  2  0
  2  3  1  0
  3  4  1  0
  4  5  1  0
  5  6  1  0
  6  7  2  0
  7  8  1  0
  8  9  2  0
  9 10  1  0
  9 11  1  0
 11 12  2  0
 12 13  1  0
 13 14  2  0
 14 15  1  0
 15 16  2  0
 15 17  1  0
 17 18  1  0
 18 19  2  0
 19 20  1  0
 20 21  2  0
 21 22  1  0
 22 23  2  0
 22 24  1  0
 24 25  1  0
 25 26  1  0
 21 27  1  0
 27 28  1  0
 28 29  1  0
 29 30  1  0
 30 31  1  0
 31 32  1  0
 32 33  1  0
 33 34  1  0
 34 35  1  0
 35 36  1  0
 36 37  1  0
 26  1  1  0
 34 30  1  0
 37  2  1  0
 10  6  1  0
 16 11  1  0
 23 18  1  0
  1 38  1  0
  3 39  1  0
  3 40  1  0
  5 41  1  0
  5 42  1  0
  7 43  1  0
  8 44  1  0
 12 45  1  0
 13 46  1  0
 17 47  1  0
 19 48  1  0
 20 49  1  0
 23 50  1  0
 24 51  1  0
 24 52  1  0
 26 53  1  0
 26 54  1  0
 28 55  1  0
 28 56  1  0
 29 57  1  0
 29 58  1  0
 31 59  1  0
 31 60  1  0
 32 61  1  0
 32 62  1  0
 33 63  1  0
 33 64  1  0
 34 65  1  0
 35 66  1  0
 35 67  1  0
 37 68  1  0
 37 69  1  0
M  END
>  <candidate_id>  (1) 
CAND_a8632b2da2

>  <source_generator>  (1) 
v5_3_model_guided_macrocycle

>  <parent_mol_id>  (1) 
JAK2_522c241c10

>  <canonical_smiles>  (1) 
C1=C2/COCc3ccc(s3)-c3ccnc(n3)Nc3ccc(c(c3)COC/1)OCCN1CCCC1COC2

>  <inchikey>  (1) 
JSEGKOBQMVJPKG-DNTJNYDQSA-N

>  <valid_rdkit>  (1) 
True

>  <unique_flag>  (1) 
True

>  <novel_flag>  (1) 
True

>  <mw>  (1) 
520.655

>  <logp>  (1) 
4.7953

>  <tpsa>  (1) 
77.97

>  <hbd>  (1) 
1

>  <hba>  (1) 
9

>  <rotatable_bonds>  (1) 
0

>  <qed>  (1) 
0.424

>  <sa_score>  (1) 
4.598

>  <murcko_scaffold>  (1) 
C1=C2/COCc3ccc(s3)-c3ccnc(n3)Nc3ccc(c(c3)COC/1)OCCN1CCCC1COC2

>  <max_ring_size>  (1) 
18

>  <has_macrocycle_12_20>  (1) 
True

>  <has_constrained_ring_8_11>  (1) 
False

>  <passes_basic_filters>  (1) 
True

>  <generation_notes>  (1) 
v5_3_model_guided_anchor_pair=0-15;anchor_scores=0.312,0.079;linker_length=3;target_ring=14;linker_prob=0.414;chemotype=oxa

$$$$
