CAND_5682a4f941
     RDKit          3D

 69 75  0  0  0  0  0  0  0  0999 V2000
    8.2302    1.3221   -0.8758 N   0  0  0  0  0  0  0  0  0  0  0  0
    6.9048    1.6444   -0.8190 C   0  0  0  0  0  0  0  0  0  0  0  0
    6.4924    2.6810   -1.3307 O   0  0  0  0  0  0  0  0  0  0  0  0
    5.9777    0.7328   -0.1189 C   0  0  0  0  0  0  0  0  0  0  0  0
    6.2879   -0.5528    0.3133 C   0  0  0  0  0  0  0  0  0  0  0  0
    5.4175   -1.4266    0.8906 N   0  0  0  0  0  0  0  0  0  0  0  0
    4.1381   -1.0441    1.1000 C   0  0  0  0  0  0  0  0  0  0  0  0
    3.7704    0.2860    0.8149 C   0  0  0  0  0  0  0  0  0  0  0  0
    4.6601    1.1185    0.1434 C   0  0  0  0  0  0  0  0  0  0  0  0
    3.9620    2.2628   -0.1939 N   0  0  0  0  0  0  0  0  0  0  0  0
    2.6606    2.1867    0.2490 C   0  0  0  0  0  0  0  0  0  0  0  0
    1.5402    2.9949   -0.0041 C   0  0  0  0  0  0  0  0  0  0  0  0
    0.3213    2.6140    0.5909 C   0  0  0  0  0  0  0  0  0  0  0  0
    0.3155    1.5949    1.5625 C   0  0  0  0  0  0  0  0  0  0  0  0
    1.4234    0.7864    1.7736 C   0  0  0  0  0  0  0  0  0  0  0  0
    2.5826    1.0368    1.0302 C   0  0  0  0  0  0  0  0  0  0  0  0
   -0.9948    3.0137    0.0621 C   0  0  0  0  0  0  0  0  0  0  0  0
   -1.2918    2.7494   -1.2695 C   0  0  0  0  0  0  0  0  0  0  0  0
   -2.5766    2.3168   -1.5805 C   0  0  0  0  0  0  0  0  0  0  0  0
   -3.5153    2.1997   -0.5672 C   0  0  0  0  0  0  0  0  0  0  0  0
   -3.2507    2.7095    0.6532 N   0  0  0  0  0  0  0  0  0  0  0  0
   -1.9854    3.1119    0.9763 N   0  0  0  0  0  0  0  0  0  0  0  0
   -4.6532    1.4217   -0.7403 N   0  0  0  0  0  0  0  0  0  0  0  0
   -5.8659    1.9038   -0.0710 C   0  0  0  0  0  0  0  0  0  0  0  0
   -6.2583    1.0074    1.0758 C   0  0  0  0  0  0  0  0  0  0  0  0
   -6.7119   -0.5839    0.4281 S   0  0  0  0  0  0  0  0  0  0  0  0
   -6.2084   -1.5965    1.3370 O   0  0  0  0  0  0  0  0  0  0  0  0
   -8.1239   -0.5376    0.0943 O   0  0  0  0  0  0  0  0  0  0  0  0
   -5.8153   -0.7225   -1.1022 C   0  0  0  0  0  0  0  0  0  0  0  0
   -4.4579   -0.0318   -1.0174 C   0  0  0  0  0  0  0  0  0  0  0  0
   -3.5150   -0.7786    0.0071 C   0  0  0  0  0  0  0  0  0  0  0  0
   -2.0979   -0.8133   -0.4072 N   0  0  0  0  0  0  0  0  0  0  0  0
   -1.2665   -1.5659    0.5439 C   0  0  0  0  0  0  0  0  0  0  0  0
    0.0727   -1.7978   -0.1109 C   0  0  0  0  0  0  0  0  0  0  0  0
    0.2698   -3.1001   -0.8345 C   0  0  0  0  0  0  0  0  0  0  0  0
    1.0961   -2.8139    0.4044 C   0  0  0  0  0  0  0  0  0  0  0  0
    2.6045   -2.6497    0.2115 C   0  0  2  0  0  0  0  0  0  0  0  0
    3.2739   -4.0191   -0.1301 C   0  0  0  0  0  0  0  0  0  0  0  0
    3.2229   -4.8627    0.9308 F   0  0  0  0  0  0  0  0  0  0  0  0
    2.6663   -4.6377   -1.1701 F   0  0  0  0  0  0  0  0  0  0  0  0
    4.5754   -3.8789   -0.4711 F   0  0  0  0  0  0  0  0  0  0  0  0
    3.2014   -2.0285    1.4328 N   0  0  0  0  0  0  0  0  0  0  0  0
    8.6622    0.5210   -0.4412 H   0  0  0  0  0  0  0  0  0  0  0  0
    8.8380    1.9720   -1.3601 H   0  0  0  0  0  0  0  0  0  0  0  0
    7.2774   -0.9759    0.1717 H   0  0  0  0  0  0  0  0  0  0  0  0
    4.3594    3.0112   -0.7514 H   0  0  0  0  0  0  0  0  0  0  0  0
    1.5922    3.8113   -0.7179 H   0  0  0  0  0  0  0  0  0  0  0  0
   -0.6107    1.3258    2.0709 H   0  0  0  0  0  0  0  0  0  0  0  0
    1.3585   -0.0753    2.4323 H   0  0  0  0  0  0  0  0  0  0  0  0
   -0.5088    2.6601   -2.0161 H   0  0  0  0  0  0  0  0  0  0  0  0
   -2.7970    1.9532   -2.5787 H   0  0  0  0  0  0  0  0  0  0  0  0
   -5.7524    2.9345    0.2885 H   0  0  0  0  0  0  0  0  0  0  0  0
   -6.6728    1.9464   -0.8138 H   0  0  0  0  0  0  0  0  0  0  0  0
   -7.1256    1.4027    1.6125 H   0  0  0  0  0  0  0  0  0  0  0  0
   -5.4387    0.8709    1.7865 H   0  0  0  0  0  0  0  0  0  0  0  0
   -5.7205   -1.7875   -1.3367 H   0  0  0  0  0  0  0  0  0  0  0  0
   -6.4326   -0.2609   -1.8812 H   0  0  0  0  0  0  0  0  0  0  0  0
   -4.0110   -0.1276   -2.0164 H   0  0  0  0  0  0  0  0  0  0  0  0
   -3.8443   -1.8215    0.0823 H   0  0  0  0  0  0  0  0  0  0  0  0
   -3.5943   -0.3273    1.0020 H   0  0  0  0  0  0  0  0  0  0  0  0
   -1.7399    0.1407   -0.4299 H   0  0  0  0  0  0  0  0  0  0  0  0
   -1.7337   -2.5255    0.7950 H   0  0  0  0  0  0  0  0  0  0  0  0
   -1.1421   -1.0043    1.4742 H   0  0  0  0  0  0  0  0  0  0  0  0
    0.4737   -0.8942   -0.5581 H   0  0  0  0  0  0  0  0  0  0  0  0
   -0.4983   -3.8637   -0.7630 H   0  0  0  0  0  0  0  0  0  0  0  0
    0.7280   -3.0506   -1.8169 H   0  0  0  0  0  0  0  0  0  0  0  0
    0.8560   -3.3695    1.3045 H   0  0  0  0  0  0  0  0  0  0  0  0
    2.7549   -1.9982   -0.6611 H   0  0  0  0  0  0  0  0  0  0  0  0
    3.6433   -2.7215    2.0353 H   0  0  0  0  0  0  0  0  0  0  0  0
  1  2  1  0
  2  3  2  0
  2  4  1  0
  4  5  1  0
  5  6  2  0
  6  7  1  0
  7  8  2  0
  8  9  1  0
  9 10  1  0
 10 11  1  0
 11 12  1  0
 12 13  2  0
 13 14  1  0
 14 15  2  0
 15 16  1  0
 13 17  1  0
 17 18  2  0
 18 19  1  0
 19 20  2  0
 20 21  1  0
 21 22  2  0
 20 23  1  0
 23 24  1  0
 24 25  1  0
 25 26  1  0
 26 27  2  0
 26 28  2  0
 26 29  1  0
 29 30  1  0
 30 31  1  0
 31 32  1  0
 32 33  1  0
 33 34  1  0
 34 35  1  0
 35 36  1  0
 36 37  1  0
 37 38  1  0
 38 39  1  0
 38 40  1  0
 38 41  1  0
 37 42  1  0
  9  4  2  0
 16 11  2  0
 22 17  1  0
 30 23  1  0
 36 34  1  0
 42  7  1  0
 16  8  1  0
  1 43  1  0
  1 44  1  0
  5 45  1  0
 10 46  1  0
 12 47  1  0
 14 48  1  0
 15 49  1  0
 18 50  1  0
 19 51  1  0
 24 52  1  0
 24 53  1  0
 25 54  1  0
 25 55  1  0
 29 56  1  0
 29 57  1  0
 30 58  1  0
 31 59  1  0
 31 60  1  0
 32 61  1  0
 33 62  1  0
 33 63  1  0
 34 64  1  0
 35 65  1  0
 35 66  1  0
 36 67  1  0
 37 68  1  6
 42 69  1  0
M  END
>  <candidate_id>  (1) 
CAND_5682a4f941

>  <source_generator>  (1) 
v5_3_model_guided_macrocycle

>  <parent_mol_id>  (1) 
JAK2_b8536fbab5

>  <canonical_smiles>  (1) 
NC(=O)c1cnc2c3c1[nH]c1cc(ccc13)-c1ccc(nn1)N1CCS(=O)(=O)CC1CNCC1CC1[C@H](C(F)(F)F)N2

>  <inchikey>  (1) 
INEZOYDVWQORFK-VUVLQECESA-N

>  <valid_rdkit>  (1) 
True

>  <unique_flag>  (1) 
True

>  <novel_flag>  (1) 
True

>  <mw>  (1) 
600.627

>  <logp>  (1) 
2.4575

>  <tpsa>  (1) 
158.99

>  <hbd>  (1) 
4

>  <hba>  (1) 
9

>  <rotatable_bonds>  (1) 
1

>  <qed>  (1) 
0.2575

>  <sa_score>  (1) 
5.917

>  <murcko_scaffold>  (1) 
O=S1(=O)CCN2c3ccc(nn3)-c3ccc4c(c3)[nH]c3ccnc(c34)NCC3CC3CNCC2C1

>  <max_ring_size>  (1) 
19

>  <has_macrocycle_12_20>  (1) 
True

>  <has_constrained_ring_8_11>  (1) 
False

>  <passes_basic_filters>  (1) 
True

>  <generation_notes>  (1) 
v5_3_model_guided_anchor_pair=10-27;anchor_scores=0.079,0.079;linker_length=3;target_ring=18;linker_prob=0.649;chemotype=aza

$$$$
