CAND_2e11abfe19
     RDKit          3D

 62 67  0  0  0  0  0  0  0  0999 V2000
   -3.3569   -0.4378   -1.4043 O   0  0  0  0  0  0  0  0  0  0  0  0
   -3.8542   -0.3201   -0.2904 C   0  0  0  0  0  0  0  0  0  0  0  0
   -4.5648   -1.3022    0.3439 N   0  0  0  0  0  0  0  0  0  0  0  0
   -4.4494   -2.6743    0.1608 C   0  0  0  0  0  0  0  0  0  0  0  0
   -5.4713   -3.5034    0.5766 C   0  0  0  0  0  0  0  0  0  0  0  0
   -5.0469   -4.7784    0.3712 N   0  0  0  0  0  0  0  0  0  0  0  0
   -3.8018   -4.8565   -0.0926 N   0  0  0  0  0  0  0  0  0  0  0  0
   -3.4126   -3.5798   -0.2600 C   0  0  0  0  0  0  0  0  0  0  0  0
   -1.9215   -3.3067   -0.7189 C   0  0  0  0  0  0  0  0  0  0  0  0
   -0.9443   -4.2015   -0.6799 N   0  0  0  0  0  0  0  0  0  0  0  0
    0.2143   -3.4919   -0.8945 C   0  0  0  0  0  0  0  0  0  0  0  0
    1.5574   -3.8839   -0.8047 C   0  0  0  0  0  0  0  0  0  0  0  0
    2.5568   -2.9089   -0.9771 C   0  0  0  0  0  0  0  0  0  0  0  0
    2.2360   -1.5768   -1.2930 C   0  0  0  0  0  0  0  0  0  0  0  0
    0.8933   -1.2091   -1.4792 C   0  0  0  0  0  0  0  0  0  0  0  0
   -0.0730   -2.1767   -1.2180 C   0  0  0  0  0  0  0  0  0  0  0  0
   -1.4353   -2.1124   -1.1672 N   0  0  0  0  0  0  0  0  0  0  0  0
    3.3111   -0.5077   -1.3540 C   0  0  0  0  0  0  0  0  0  0  0  0
    3.6377   -0.0199   -0.0021 N   0  0  0  0  0  0  0  0  0  0  0  0
    5.0052   -0.3758    0.4153 C   0  0  0  0  0  0  0  0  0  0  0  0
    6.0083    0.7552    0.1582 C   0  0  0  0  0  0  0  0  0  0  0  0
    5.6868    1.9701    0.8477 O   0  0  0  0  0  0  0  0  0  0  0  0
    4.3107    2.0515    1.2450 C   0  0  0  0  0  0  0  0  0  0  0  0
    3.3555    1.4300    0.1974 C   0  0  0  0  0  0  0  0  0  0  0  0
    1.8826    1.5999    0.6101 C   0  0  0  0  0  0  0  0  0  0  0  0
    1.4180    3.0531    0.7240 C   0  0  0  0  0  0  0  0  0  0  0  0
   -0.0129    3.1281    0.7882 O   0  0  0  0  0  0  0  0  0  0  0  0
   -0.6506    2.9740   -0.4863 C   0  0  0  0  0  0  0  0  0  0  0  0
   -1.6211    1.7917   -0.4608 C   0  0  0  0  0  0  0  0  0  0  0  0
   -3.0378    2.0237    0.0784 C   0  0  0  0  0  0  0  0  0  0  0  0
   -3.8649    3.1231   -0.5605 C   0  0  0  0  0  0  0  0  0  0  0  0
   -3.3746    3.2923    0.8455 C   0  0  0  0  0  0  0  0  0  0  0  0
   -3.7413    0.8177    0.4820 N   0  0  0  0  0  0  0  0  0  0  0  0
   -5.3490   -0.9896    0.8981 H   0  0  0  0  0  0  0  0  0  0  0  0
   -6.4470   -3.3060    0.9955 H   0  0  0  0  0  0  0  0  0  0  0  0
   -5.5414   -5.6457    0.5541 H   0  0  0  0  0  0  0  0  0  0  0  0
    1.8075   -4.9064   -0.5458 H   0  0  0  0  0  0  0  0  0  0  0  0
    3.5958   -3.1970   -0.8340 H   0  0  0  0  0  0  0  0  0  0  0  0
    0.6087   -0.1971   -1.7406 H   0  0  0  0  0  0  0  0  0  0  0  0
   -1.9977   -1.3041   -1.3924 H   0  0  0  0  0  0  0  0  0  0  0  0
    4.1878   -0.9158   -1.8744 H   0  0  0  0  0  0  0  0  0  0  0  0
    2.9624    0.3026   -2.0081 H   0  0  0  0  0  0  0  0  0  0  0  0
    4.9748   -0.5801    1.4931 H   0  0  0  0  0  0  0  0  0  0  0  0
    5.3480   -1.3065   -0.0518 H   0  0  0  0  0  0  0  0  0  0  0  0
    7.0090    0.4514    0.4818 H   0  0  0  0  0  0  0  0  0  0  0  0
    6.0678    0.9823   -0.9125 H   0  0  0  0  0  0  0  0  0  0  0  0
    4.2008    1.5685    2.2237 H   0  0  0  0  0  0  0  0  0  0  0  0
    4.0952    3.1149    1.3871 H   0  0  0  0  0  0  0  0  0  0  0  0
    3.5399    1.9641   -0.7448 H   0  0  0  0  0  0  0  0  0  0  0  0
    1.6889    1.0907    1.5636 H   0  0  0  0  0  0  0  0  0  0  0  0
    1.2458    1.0970   -0.1161 H   0  0  0  0  0  0  0  0  0  0  0  0
    1.7862    3.6713   -0.1031 H   0  0  0  0  0  0  0  0  0  0  0  0
    1.7973    3.4895    1.6534 H   0  0  0  0  0  0  0  0  0  0  0  0
    0.0957    2.7937   -1.2703 H   0  0  0  0  0  0  0  0  0  0  0  0
   -1.1428    3.9173   -0.7380 H   0  0  0  0  0  0  0  0  0  0  0  0
   -1.7274    1.4443   -1.4954 H   0  0  0  0  0  0  0  0  0  0  0  0
   -1.1679    0.9766    0.1163 H   0  0  0  0  0  0  0  0  0  0  0  0
   -3.4189    3.7320   -1.3379 H   0  0  0  0  0  0  0  0  0  0  0  0
   -4.9234    2.9436   -0.7145 H   0  0  0  0  0  0  0  0  0  0  0  0
   -4.1088    3.2421    1.6423 H   0  0  0  0  0  0  0  0  0  0  0  0
   -2.6015    4.0258    1.0402 H   0  0  0  0  0  0  0  0  0  0  0  0
   -4.0244    0.7536    1.4505 H   0  0  0  0  0  0  0  0  0  0  0  0
  1  2  2  0
  2  3  1  0
  3  4  1  0
  4  5  2  0
  5  6  1  0
  6  7  1  0
  7  8  2  0
  8  9  1  0
  9 10  2  0
 10 11  1  0
 11 12  2  0
 12 13  1  0
 13 14  2  0
 14 15  1  0
 15 16  2  0
 16 17  1  0
 14 18  1  0
 18 19  1  0
 19 20  1  0
 20 21  1  0
 21 22  1  0
 22 23  1  0
 23 24  1  0
 24 25  1  0
 25 26  1  0
 26 27  1  0
 27 28  1  0
 28 29  1  0
 29 30  1  0
 30 31  1  0
 31 32  1  0
 30 33  1  0
 33  2  1  0
  8  4  1  0
 17  9  1  0
 24 19  1  0
 32 30  1  0
 16 11  1  0
  3 34  1  0
  5 35  1  0
  6 36  1  0
 12 37  1  0
 13 38  1  0
 15 39  1  0
 17 40  1  0
 18 41  1  0
 18 42  1  0
 20 43  1  0
 20 44  1  0
 21 45  1  0
 21 46  1  0
 23 47  1  0
 23 48  1  0
 24 49  1  0
 25 50  1  0
 25 51  1  0
 26 52  1  0
 26 53  1  0
 28 54  1  0
 28 55  1  0
 29 56  1  0
 29 57  1  0
 31 58  1  0
 31 59  1  0
 32 60  1  0
 32 61  1  0
 33 62  1  0
M  END
>  <candidate_id>  (1) 
CAND_2e11abfe19

>  <source_generator>  (1) 
v5_3_model_guided_macrocycle

>  <parent_mol_id>  (1) 
JAK2_dbe7510318

>  <canonical_smiles>  (1) 
O=C1Nc2c[nH]nc2-c2nc3ccc(cc3[nH]2)CN2CCOCC2CCOCCC2(CC2)N1

>  <inchikey>  (1) 
RLLDBAYFCZKELV-UHFFFAOYSA-N

>  <valid_rdkit>  (1) 
True

>  <unique_flag>  (1) 
True

>  <novel_flag>  (1) 
True

>  <mw>  (1) 
451.531

>  <logp>  (1) 
2.6183

>  <tpsa>  (1) 
120.19

>  <hbd>  (1) 
4

>  <hba>  (1) 
6

>  <rotatable_bonds>  (1) 
0

>  <qed>  (1) 
0.4171

>  <sa_score>  (1) 
4.214

>  <murcko_scaffold>  (1) 
O=C1Nc2c[nH]nc2-c2nc3ccc(cc3[nH]2)CN2CCOCC2CCOCCC2(CC2)N1

>  <max_ring_size>  (1) 
19

>  <has_macrocycle_12_20>  (1) 
True

>  <has_constrained_ring_8_11>  (1) 
False

>  <passes_basic_filters>  (1) 
True

>  <generation_notes>  (1) 
v5_3_model_guided_anchor_pair=25-16;anchor_scores=0.691,0.079;linker_length=5;target_ring=18;linker_prob=0.200;chemotype=oxa

$$$$
