CAND_34ad2a24d8
     RDKit          3D

 66 71  0  0  0  0  0  0  0  0999 V2000
    2.8049    0.9400   -0.2656 O   0  0  0  0  0  0  0  0  0  0  0  0
    3.7787    0.9338    0.4748 C   0  0  0  0  0  0  0  0  0  0  0  0
    4.4135    2.0449    0.9647 N   0  0  0  0  0  0  0  0  0  0  0  0
    4.0264    3.3746    0.8438 C   0  0  0  0  0  0  0  0  0  0  0  0
    4.9810    4.3569    1.0278 C   0  0  0  0  0  0  0  0  0  0  0  0
    4.3633    5.5487    0.8202 N   0  0  0  0  0  0  0  0  0  0  0  0
    3.0648    5.4342    0.5623 N   0  0  0  0  0  0  0  0  0  0  0  0
    2.8165    4.1114    0.5943 C   0  0  0  0  0  0  0  0  0  0  0  0
    1.3068    3.6505    0.4563 C   0  0  0  0  0  0  0  0  0  0  0  0
    0.2781    4.4750    0.3098 N   0  0  0  0  0  0  0  0  0  0  0  0
   -0.8438    3.6806    0.2915 C   0  0  0  0  0  0  0  0  0  0  0  0
   -2.1995    4.0120    0.1498 C   0  0  0  0  0  0  0  0  0  0  0  0
   -3.1552    2.9795    0.1681 C   0  0  0  0  0  0  0  0  0  0  0  0
   -2.7752    1.6378    0.3358 C   0  0  0  0  0  0  0  0  0  0  0  0
   -1.4177    1.3071    0.4822 C   0  0  0  0  0  0  0  0  0  0  0  0
   -0.4984    2.3497    0.4444 C   0  0  0  0  0  0  0  0  0  0  0  0
    0.8640    2.3607    0.5138 N   0  0  0  0  0  0  0  0  0  0  0  0
   -3.7994    0.5216    0.3742 C   0  0  0  0  0  0  0  0  0  0  0  0
   -3.6857   -0.3444   -0.8211 N   0  0  0  0  0  0  0  0  0  0  0  0
   -4.7219    0.0366   -1.8109 C   0  0  0  0  0  0  0  0  0  0  0  0
   -6.0277   -0.7861   -1.7170 C   0  0  0  0  0  0  0  0  0  0  0  0
   -6.2871   -1.2318   -0.3817 O   0  0  0  0  0  0  0  0  0  0  0  0
   -5.2354   -2.0741    0.1248 C   0  0  0  0  0  0  0  0  0  0  0  0
   -3.8515   -1.7841   -0.5113 C   0  0  0  0  0  0  0  0  0  0  0  0
   -2.6932   -2.3948    0.3084 C   0  0  0  0  0  0  0  0  0  0  0  0
   -1.3704   -2.4102   -0.4727 C   0  0  0  0  0  0  0  0  0  0  0  0
   -0.2668   -2.8091    0.4116 N   0  0  0  0  0  0  0  0  0  0  0  0
    0.9716   -3.0038   -0.3513 C   0  0  0  0  0  0  0  0  0  0  0  0
    2.1308   -3.3838    0.5812 C   0  0  0  0  0  0  0  0  0  0  0  0
    2.8360   -2.1752    1.2115 C   0  0  0  0  0  0  0  0  0  0  0  0
    3.9857   -1.5428    0.4174 C   0  0  0  0  0  0  0  0  0  0  0  0
    5.1257   -2.4560   -0.0094 C   0  0  0  0  0  0  0  0  0  0  0  0
    4.2230   -1.8671   -1.0482 C   0  0  0  0  0  0  0  0  0  0  0  0
    4.3790   -0.2345    0.8990 N   0  0  0  0  0  0  0  0  0  0  0  0
    5.3585    1.8993    1.2867 H   0  0  0  0  0  0  0  0  0  0  0  0
    6.0364    4.3155    1.2531 H   0  0  0  0  0  0  0  0  0  0  0  0
    4.7620    6.4816    0.8476 H   0  0  0  0  0  0  0  0  0  0  0  0
   -2.4927    5.0478    0.0241 H   0  0  0  0  0  0  0  0  0  0  0  0
   -4.2050    3.2382    0.0516 H   0  0  0  0  0  0  0  0  0  0  0  0
   -1.0933    0.2815    0.6152 H   0  0  0  0  0  0  0  0  0  0  0  0
    1.4535    1.5416    0.5068 H   0  0  0  0  0  0  0  0  0  0  0  0
   -4.8107    0.9316    0.4996 H   0  0  0  0  0  0  0  0  0  0  0  0
   -3.6137   -0.0270    1.3051 H   0  0  0  0  0  0  0  0  0  0  0  0
   -4.3081   -0.0983   -2.8182 H   0  0  0  0  0  0  0  0  0  0  0  0
   -4.9541    1.1073   -1.7466 H   0  0  0  0  0  0  0  0  0  0  0  0
   -5.9859   -1.6624   -2.3754 H   0  0  0  0  0  0  0  0  0  0  0  0
   -6.8761   -0.1743   -2.0401 H   0  0  0  0  0  0  0  0  0  0  0  0
   -5.5207   -3.1155   -0.0624 H   0  0  0  0  0  0  0  0  0  0  0  0
   -5.2110   -1.9310    1.2105 H   0  0  0  0  0  0  0  0  0  0  0  0
   -3.8301   -2.3137   -1.4759 H   0  0  0  0  0  0  0  0  0  0  0  0
   -2.5639   -1.8649    1.2586 H   0  0  0  0  0  0  0  0  0  0  0  0
   -2.9528   -3.4286    0.5737 H   0  0  0  0  0  0  0  0  0  0  0  0
   -1.1563   -1.4259   -0.8994 H   0  0  0  0  0  0  0  0  0  0  0  0
   -1.4649   -3.1184   -1.3052 H   0  0  0  0  0  0  0  0  0  0  0  0
   -0.5094   -3.6788    0.8852 H   0  0  0  0  0  0  0  0  0  0  0  0
    0.8229   -3.8211   -1.0674 H   0  0  0  0  0  0  0  0  0  0  0  0
    1.2203   -2.1009   -0.9202 H   0  0  0  0  0  0  0  0  0  0  0  0
    2.8384   -4.0157    0.0350 H   0  0  0  0  0  0  0  0  0  0  0  0
    1.7453   -4.0209    1.3887 H   0  0  0  0  0  0  0  0  0  0  0  0
    3.2618   -2.4966    2.1714 H   0  0  0  0  0  0  0  0  0  0  0  0
    2.0936   -1.4040    1.4520 H   0  0  0  0  0  0  0  0  0  0  0  0
    6.1423   -2.0810    0.0369 H   0  0  0  0  0  0  0  0  0  0  0  0
    5.0550   -3.5190    0.1878 H   0  0  0  0  0  0  0  0  0  0  0  0
    3.5518   -2.5281   -1.5797 H   0  0  0  0  0  0  0  0  0  0  0  0
    4.6178   -1.0808   -1.6845 H   0  0  0  0  0  0  0  0  0  0  0  0
    5.0681   -0.1951    1.6357 H   0  0  0  0  0  0  0  0  0  0  0  0
  1  2  2  0
  2  3  1  0
  3  4  1  0
  4  5  2  0
  5  6  1  0
  6  7  1  0
  7  8  2  0
  8  9  1  0
  9 10  2  0
 10 11  1  0
 11 12  2  0
 12 13  1  0
 13 14  2  0
 14 15  1  0
 15 16  2  0
 16 17  1  0
 14 18  1  0
 18 19  1  0
 19 20  1  0
 20 21  1  0
 21 22  1  0
 22 23  1  0
 23 24  1  0
 24 25  1  0
 25 26  1  0
 26 27  1  0
 27 28  1  0
 28 29  1  0
 29 30  1  0
 30 31  1  0
 31 32  1  0
 32 33  1  0
 31 34  1  0
 34  2  1  0
  8  4  1  0
 17  9  1  0
 24 19  1  0
 33 31  1  0
 16 11  1  0
  3 35  1  0
  5 36  1  0
  6 37  1  0
 12 38  1  0
 13 39  1  0
 15 40  1  0
 17 41  1  0
 18 42  1  0
 18 43  1  0
 20 44  1  0
 20 45  1  0
 21 46  1  0
 21 47  1  0
 23 48  1  0
 23 49  1  0
 24 50  1  0
 25 51  1  0
 25 52  1  0
 26 53  1  0
 26 54  1  0
 27 55  1  0
 28 56  1  0
 28 57  1  0
 29 58  1  0
 29 59  1  0
 30 60  1  0
 30 61  1  0
 32 62  1  0
 32 63  1  0
 33 64  1  0
 33 65  1  0
 34 66  1  0
M  END
>  <candidate_id>  (1) 
CAND_34ad2a24d8

>  <source_generator>  (1) 
v5_3_model_guided_macrocycle

>  <parent_mol_id>  (1) 
JAK2_dbe7510318

>  <canonical_smiles>  (1) 
O=C1Nc2c[nH]nc2-c2nc3ccc(cc3[nH]2)CN2CCOCC2CCNCCCC2(CC2)N1

>  <inchikey>  (1) 
KLRRCJHYZNWGOL-UHFFFAOYSA-N

>  <valid_rdkit>  (1) 
True

>  <unique_flag>  (1) 
True

>  <novel_flag>  (1) 
True

>  <mw>  (1) 
464.574

>  <logp>  (1) 
2.5814

>  <tpsa>  (1) 
122.99

>  <hbd>  (1) 
5

>  <hba>  (1) 
6

>  <rotatable_bonds>  (1) 
0

>  <qed>  (1) 
0.3485

>  <sa_score>  (1) 
4.287

>  <murcko_scaffold>  (1) 
O=C1Nc2c[nH]nc2-c2nc3ccc(cc3[nH]2)CN2CCOCC2CCNCCCC2(CC2)N1

>  <max_ring_size>  (1) 
20

>  <has_macrocycle_12_20>  (1) 
True

>  <has_constrained_ring_8_11>  (1) 
False

>  <passes_basic_filters>  (1) 
True

>  <generation_notes>  (1) 
v5_3_model_guided_anchor_pair=25-16;anchor_scores=0.691,0.079;linker_length=6;target_ring=19;linker_prob=0.167;chemotype=aza

$$$$
