CAND_ec7238a2dd
     RDKit          3D

 69 74  0  0  0  0  0  0  0  0999 V2000
    0.6986    2.3520   -1.7793 C   0  0  0  0  0  0  0  0  0  0  0  0
    0.0700    2.7696   -0.6566 C   0  0  0  0  0  0  0  0  0  0  0  0
    0.4935    4.0072    0.1140 C   0  0  0  0  0  0  0  0  0  0  0  0
    1.7129    4.5725   -0.3778 O   0  0  0  0  0  0  0  0  0  0  0  0
    2.7796    4.5735    0.5773 C   0  0  0  0  0  0  0  0  0  0  0  0
    3.4566    3.2386    0.5489 C   0  0  0  0  0  0  0  0  0  0  0  0
    4.0315    2.6021   -0.5324 C   0  0  0  0  0  0  0  0  0  0  0  0
    4.4788    1.2909   -0.2118 C   0  0  0  0  0  0  0  0  0  0  0  0
    4.2771    0.9749    1.1173 C   0  0  0  0  0  0  0  0  0  0  0  0
    3.5872    2.2883    1.9701 S   0  0  0  0  0  0  0  0  0  0  0  0
    4.4886   -0.3116    1.7720 C   0  0  0  0  0  0  0  0  0  0  0  0
    5.3440   -0.5095    2.8259 C   0  0  0  0  0  0  0  0  0  0  0  0
    5.4014   -1.8042    3.2825 C   0  0  0  0  0  0  0  0  0  0  0  0
    4.6722   -2.8202    2.7698 N   0  0  0  0  0  0  0  0  0  0  0  0
    3.8539   -2.5276    1.7468 C   0  0  0  0  0  0  0  0  0  0  0  0
    3.7646   -1.3016    1.2233 N   0  0  0  0  0  0  0  0  0  0  0  0
    3.0196   -3.5487    1.2902 N   0  0  0  0  0  0  0  0  0  0  0  0
    1.9665   -3.4981    0.3652 C   0  0  0  0  0  0  0  0  0  0  0  0
    0.8496   -4.3203    0.5466 C   0  0  0  0  0  0  0  0  0  0  0  0
   -0.3116   -4.1294   -0.2113 C   0  0  0  0  0  0  0  0  0  0  0  0
   -0.3751   -3.1021   -1.1554 C   0  0  0  0  0  0  0  0  0  0  0  0
    0.7606   -2.3384   -1.4431 C   0  0  0  0  0  0  0  0  0  0  0  0
    1.9134   -2.5491   -0.6642 C   0  0  0  0  0  0  0  0  0  0  0  0
    0.7953   -1.2321   -2.4635 C   0  0  0  0  0  0  0  0  0  0  0  0
    0.7015   -0.0061   -1.7462 O   0  0  0  0  0  0  0  0  0  0  0  0
    0.4198    1.1123   -2.5735 C   0  0  0  0  0  0  0  0  0  0  0  0
   -1.6049   -2.8761   -1.7249 O   0  0  0  0  0  0  0  0  0  0  0  0
   -2.1032   -1.5812   -1.3375 C   0  0  0  0  0  0  0  0  0  0  0  0
   -3.6178   -1.6313   -1.0866 C   0  0  0  0  0  0  0  0  0  0  0  0
   -4.1742   -0.2850   -0.8344 N   0  0  0  0  0  0  0  0  0  0  0  0
   -5.6443   -0.3017   -0.8621 C   0  0  0  0  0  0  0  0  0  0  0  0
   -6.1030   -0.5645    0.5649 C   0  0  0  0  0  0  0  0  0  0  0  0
   -4.8807   -0.3167    1.4381 C   0  0  0  0  0  0  0  0  0  0  0  0
   -3.8118    0.2548    0.4982 C   0  0  0  0  0  0  0  0  0  0  0  0
   -3.8100    1.8044    0.5491 C   0  0  0  0  0  0  0  0  0  0  0  0
   -2.6639    2.6601   -0.6002 S   0  0  0  0  0  0  0  0  0  0  0  0
   -1.0687    2.0046   -0.0162 C   0  0  0  0  0  0  0  0  0  0  0  0
    1.5088    2.9580   -2.1767 H   0  0  0  0  0  0  0  0  0  0  0  0
   -0.2799    4.7754    0.0037 H   0  0  0  0  0  0  0  0  0  0  0  0
    0.5717    3.7723    1.1824 H   0  0  0  0  0  0  0  0  0  0  0  0
    3.4980    5.3366    0.2556 H   0  0  0  0  0  0  0  0  0  0  0  0
    2.4200    4.8681    1.5700 H   0  0  0  0  0  0  0  0  0  0  0  0
    4.0604    3.0340   -1.5250 H   0  0  0  0  0  0  0  0  0  0  0  0
    4.8876    0.5913   -0.9298 H   0  0  0  0  0  0  0  0  0  0  0  0
    5.9385    0.2835    3.2586 H   0  0  0  0  0  0  0  0  0  0  0  0
    6.0535   -2.0767    4.1088 H   0  0  0  0  0  0  0  0  0  0  0  0
    3.1303   -4.3808    1.8467 H   0  0  0  0  0  0  0  0  0  0  0  0
    0.8453   -5.0744    1.3289 H   0  0  0  0  0  0  0  0  0  0  0  0
   -1.1890   -4.7377   -0.0144 H   0  0  0  0  0  0  0  0  0  0  0  0
    2.7728   -1.9079   -0.8516 H   0  0  0  0  0  0  0  0  0  0  0  0
   -0.0099   -1.3354   -3.1987 H   0  0  0  0  0  0  0  0  0  0  0  0
    1.7433   -1.2573   -3.0146 H   0  0  0  0  0  0  0  0  0  0  0  0
   -0.6221    1.0849   -2.9085 H   0  0  0  0  0  0  0  0  0  0  0  0
    1.0681    1.0995   -3.4576 H   0  0  0  0  0  0  0  0  0  0  0  0
   -1.5963   -1.2213   -0.4361 H   0  0  0  0  0  0  0  0  0  0  0  0
   -1.9144   -0.8844   -2.1578 H   0  0  0  0  0  0  0  0  0  0  0  0
   -3.8454   -2.3373   -0.2777 H   0  0  0  0  0  0  0  0  0  0  0  0
   -4.0783   -2.0526   -1.9918 H   0  0  0  0  0  0  0  0  0  0  0  0
   -6.0001    0.6854   -1.1841 H   0  0  0  0  0  0  0  0  0  0  0  0
   -6.0644   -1.0223   -1.5728 H   0  0  0  0  0  0  0  0  0  0  0  0
   -6.4488   -1.5973    0.6854 H   0  0  0  0  0  0  0  0  0  0  0  0
   -6.9291    0.1009    0.8380 H   0  0  0  0  0  0  0  0  0  0  0  0
   -5.1123    0.3424    2.2813 H   0  0  0  0  0  0  0  0  0  0  0  0
   -4.5397   -1.2728    1.8556 H   0  0  0  0  0  0  0  0  0  0  0  0
   -2.8283   -0.0822    0.8415 H   0  0  0  0  0  0  0  0  0  0  0  0
   -3.5647    2.1362    1.5644 H   0  0  0  0  0  0  0  0  0  0  0  0
   -4.8117    2.1931    0.3342 H   0  0  0  0  0  0  0  0  0  0  0  0
   -1.0179    0.9437   -0.2561 H   0  0  0  0  0  0  0  0  0  0  0  0
   -1.0134    2.0849    1.0750 H   0  0  0  0  0  0  0  0  0  0  0  0
  1  2  2  0
  2  3  1  0
  3  4  1  0
  4  5  1  0
  5  6  1  0
  6  7  2  0
  7  8  1  0
  8  9  2  0
  9 10  1  0
  9 11  1  0
 11 12  2  0
 12 13  1  0
 13 14  2  0
 14 15  1  0
 15 16  2  0
 15 17  1  0
 17 18  1  0
 18 19  2  0
 19 20  1  0
 20 21  2  0
 21 22  1  0
 22 23  2  0
 22 24  1  0
 24 25  1  0
 25 26  1  0
 21 27  1  0
 27 28  1  0
 28 29  1  0
 29 30  1  0
 30 31  1  0
 31 32  1  0
 32 33  1  0
 33 34  1  0
 34 35  1  0
 35 36  1  0
 36 37  1  0
 26  1  1  0
 34 30  1  0
 37  2  1  0
 10  6  1  0
 16 11  1  0
 23 18  1  0
  1 38  1  0
  3 39  1  0
  3 40  1  0
  5 41  1  0
  5 42  1  0
  7 43  1  0
  8 44  1  0
 12 45  1  0
 13 46  1  0
 17 47  1  0
 19 48  1  0
 20 49  1  0
 23 50  1  0
 24 51  1  0
 24 52  1  0
 26 53  1  0
 26 54  1  0
 28 55  1  0
 28 56  1  0
 29 57  1  0
 29 58  1  0
 31 59  1  0
 31 60  1  0
 32 61  1  0
 32 62  1  0
 33 63  1  0
 33 64  1  0
 34 65  1  0
 35 66  1  0
 35 67  1  0
 37 68  1  0
 37 69  1  0
M  END
>  <candidate_id>  (1) 
CAND_ec7238a2dd

>  <source_generator>  (1) 
v5_3_model_guided_macrocycle

>  <parent_mol_id>  (1) 
JAK2_522c241c10

>  <canonical_smiles>  (1) 
C1=C2/COCc3ccc(s3)-c3ccnc(n3)Nc3ccc(c(c3)COC/1)OCCN1CCCC1CSC2

>  <inchikey>  (1) 
HZKXHPKRYNNZJL-ZBKNUEDVSA-N

>  <valid_rdkit>  (1) 
True

>  <unique_flag>  (1) 
True

>  <novel_flag>  (1) 
True

>  <mw>  (1) 
536.723

>  <logp>  (1) 
5.5119

>  <tpsa>  (1) 
68.74

>  <hbd>  (1) 
1

>  <hba>  (1) 
9

>  <rotatable_bonds>  (1) 
0

>  <qed>  (1) 
0.3773

>  <sa_score>  (1) 
4.943

>  <murcko_scaffold>  (1) 
C1=C2/COCc3ccc(s3)-c3ccnc(n3)Nc3ccc(c(c3)COC/1)OCCN1CCCC1CSC2

>  <max_ring_size>  (1) 
18

>  <has_macrocycle_12_20>  (1) 
True

>  <has_constrained_ring_8_11>  (1) 
False

>  <passes_basic_filters>  (1) 
True

>  <generation_notes>  (1) 
v5_3_model_guided_anchor_pair=0-15;anchor_scores=0.312,0.079;linker_length=3;target_ring=14;linker_prob=0.414;chemotype=thioether

$$$$
