CAND_454e8d3cd4
     RDKit          3D

 76 82  0  0  0  0  0  0  0  0999 V2000
   -5.6006   -0.9029    1.3545 C   0  0  0  0  0  0  0  0  0  0  0  0
   -5.5337   -1.5782    0.0612 N   0  0  0  0  0  0  0  0  0  0  0  0
   -5.1466   -2.9980    0.1992 C   0  0  0  0  0  0  0  0  0  0  0  0
   -3.6827   -3.2504    0.6196 C   0  0  0  0  0  0  0  0  0  0  0  0
   -2.7394   -2.5119   -0.2365 N   0  0  0  0  0  0  0  0  0  0  0  0
   -1.3997   -2.8134    0.0363 C   0  0  0  0  0  0  0  0  0  0  0  0
   -0.7386   -3.7720   -0.7392 C   0  0  0  0  0  0  0  0  0  0  0  0
    0.6516   -3.9292   -0.6569 C   0  0  0  0  0  0  0  0  0  0  0  0
    1.4081   -3.1282    0.2103 C   0  0  0  0  0  0  0  0  0  0  0  0
    0.7172   -2.2560    1.0699 C   0  0  0  0  0  0  0  0  0  0  0  0
   -0.6658   -2.1076    0.9918 C   0  0  0  0  0  0  0  0  0  0  0  0
    2.8703   -3.0542    0.1395 C   0  0  0  0  0  0  0  0  0  0  0  0
    3.7374   -4.1215    0.0059 C   0  0  0  0  0  0  0  0  0  0  0  0
    5.0815   -3.9642   -0.1173 N   0  0  0  0  0  0  0  0  0  0  0  0
    5.5462   -2.6950   -0.1251 C   0  0  0  0  0  0  0  0  0  0  0  0
    6.9056   -2.4533   -0.2738 C   0  0  0  0  0  0  0  0  0  0  0  0
    7.4160   -1.1541   -0.3071 C   0  0  0  0  0  0  0  0  0  0  0  0
    6.5525   -0.0688   -0.1914 C   0  0  0  0  0  0  0  0  0  0  0  0
    5.1755   -0.2790   -0.0330 C   0  0  0  0  0  0  0  0  0  0  0  0
    4.6735   -1.5912    0.0058 C   0  0  0  0  0  0  0  0  0  0  0  0
    3.3521   -1.7904    0.1516 N   0  0  0  0  0  0  0  0  0  0  0  0
    4.2491    0.8633    0.0759 C   0  0  0  0  0  0  0  0  0  0  0  0
    3.7037    1.2269    1.3153 C   0  0  0  0  0  0  0  0  0  0  0  0
    2.7398    2.2320    1.3983 C   0  0  0  0  0  0  0  0  0  0  0  0
    2.2548    2.5511    2.6076 F   0  0  0  0  0  0  0  0  0  0  0  0
    2.2879    2.9096    0.2652 C   0  0  0  0  0  0  0  0  0  0  0  0
    2.8480    2.5566   -0.9611 C   0  0  0  0  0  0  0  0  0  0  0  0
    2.4575    3.1869   -2.0788 F   0  0  0  0  0  0  0  0  0  0  0  0
    3.8153    1.5539   -1.0647 C   0  0  0  0  0  0  0  0  0  0  0  0
    1.2468    3.9889    0.3784 C   0  0  0  0  0  0  0  0  0  0  0  0
   -0.1137    3.4674    0.5998 N   0  0  0  0  0  0  0  0  0  0  0  0
   -0.9170    4.4596    1.3461 C   0  0  0  0  0  0  0  0  0  0  0  0
   -2.4197    4.1458    1.3077 C   0  0  0  0  0  0  0  0  0  0  0  0
   -2.9659    4.0876   -0.0167 O   0  0  0  0  0  0  0  0  0  0  0  0
   -1.9600    4.0020   -1.0306 C   0  0  0  0  0  0  0  0  0  0  0  0
   -0.7983    3.0482   -0.6571 C   0  0  0  0  0  0  0  0  0  0  0  0
   -1.2613    1.5803   -0.4704 C   0  0  0  0  0  0  0  0  0  0  0  0
   -2.0634    1.0272   -1.6600 C   0  0  0  0  0  0  0  0  0  0  0  0
   -2.1912   -0.5029   -1.6440 C   0  0  0  0  0  0  0  0  0  0  0  0
   -3.0615   -1.0753   -0.4914 C   0  0  0  0  0  0  0  0  0  0  0  0
   -4.5736   -0.9169   -0.8518 C   0  0  0  0  0  0  0  0  0  0  0  0
   -4.6477   -0.8915    1.8927 H   0  0  0  0  0  0  0  0  0  0  0  0
   -5.9285    0.1345    1.2245 H   0  0  0  0  0  0  0  0  0  0  0  0
   -6.3460   -1.3861    1.9961 H   0  0  0  0  0  0  0  0  0  0  0  0
   -5.3173   -3.4858   -0.7700 H   0  0  0  0  0  0  0  0  0  0  0  0
   -5.8208   -3.5013    0.9032 H   0  0  0  0  0  0  0  0  0  0  0  0
   -3.5456   -2.9578    1.6684 H   0  0  0  0  0  0  0  0  0  0  0  0
   -3.4876   -4.3282    0.5523 H   0  0  0  0  0  0  0  0  0  0  0  0
   -1.2987   -4.3353   -1.4817 H   0  0  0  0  0  0  0  0  0  0  0  0
    1.1361   -4.6127   -1.3499 H   0  0  0  0  0  0  0  0  0  0  0  0
    1.2710   -1.6194    1.7590 H   0  0  0  0  0  0  0  0  0  0  0  0
   -1.1483   -1.3765    1.6334 H   0  0  0  0  0  0  0  0  0  0  0  0
    3.3858   -5.1470   -0.0068 H   0  0  0  0  0  0  0  0  0  0  0  0
    7.5816   -3.2996   -0.3719 H   0  0  0  0  0  0  0  0  0  0  0  0
    8.4847   -0.9933   -0.4276 H   0  0  0  0  0  0  0  0  0  0  0  0
    6.9535    0.9424   -0.2223 H   0  0  0  0  0  0  0  0  0  0  0  0
    3.9974    0.7089    2.2244 H   0  0  0  0  0  0  0  0  0  0  0  0
    4.1956    1.2942   -2.0491 H   0  0  0  0  0  0  0  0  0  0  0  0
    1.5521    4.6151    1.2294 H   0  0  0  0  0  0  0  0  0  0  0  0
    1.2759    4.6625   -0.4885 H   0  0  0  0  0  0  0  0  0  0  0  0
   -0.7622    5.4636    0.9284 H   0  0  0  0  0  0  0  0  0  0  0  0
   -0.5835    4.4820    2.3900 H   0  0  0  0  0  0  0  0  0  0  0  0
   -2.6288    3.1908    1.8021 H   0  0  0  0  0  0  0  0  0  0  0  0
   -2.9745    4.9149    1.8553 H   0  0  0  0  0  0  0  0  0  0  0  0
   -2.4491    3.6885   -1.9580 H   0  0  0  0  0  0  0  0  0  0  0  0
   -1.5776    5.0127   -1.2221 H   0  0  0  0  0  0  0  0  0  0  0  0
   -0.0949    3.0572   -1.4992 H   0  0  0  0  0  0  0  0  0  0  0  0
   -1.8636    1.4828    0.4392 H   0  0  0  0  0  0  0  0  0  0  0  0
   -0.3701    0.9568   -0.3190 H   0  0  0  0  0  0  0  0  0  0  0  0
   -1.5562    1.3096   -2.5910 H   0  0  0  0  0  0  0  0  0  0  0  0
   -3.0594    1.4808   -1.6896 H   0  0  0  0  0  0  0  0  0  0  0  0
   -2.6063   -0.8315   -2.6057 H   0  0  0  0  0  0  0  0  0  0  0  0
   -1.1727   -0.9047   -1.6228 H   0  0  0  0  0  0  0  0  0  0  0  0
   -2.8780   -0.5121    0.4298 H   0  0  0  0  0  0  0  0  0  0  0  0
   -4.8284    0.1469   -0.9326 H   0  0  0  0  0  0  0  0  0  0  0  0
   -4.7454   -1.3344   -1.8534 H   0  0  0  0  0  0  0  0  0  0  0  0
  1  2  1  0
  2  3  1  0
  3  4  1  0
  4  5  1  0
  5  6  1  0
  6  7  2  0
  7  8  1  0
  8  9  2  0
  9 10  1  0
 10 11  2  0
  9 12  1  0
 12 13  2  0
 13 14  1  0
 14 15  2  0
 15 16  1  0
 16 17  2  0
 17 18  1  0
 18 19  2  0
 19 20  1  0
 20 21  2  0
 19 22  1  0
 22 23  2  0
 23 24  1  0
 24 25  1  0
 24 26  2  0
 26 27  1  0
 27 28  1  0
 27 29  2  0
 26 30  1  0
 30 31  1  0
 31 32  1  0
 32 33  1  0
 33 34  1  0
 34 35  1  0
 35 36  1  0
 36 37  1  0
 37 38  1  0
 38 39  1  0
 39 40  1  0
 40 41  1  0
 41  2  1  0
 40  5  1  0
 11  6  1  0
 21 12  1  0
 29 22  1  0
 36 31  1  0
 20 15  1  0
  1 42  1  0
  1 43  1  0
  1 44  1  0
  3 45  1  0
  3 46  1  0
  4 47  1  0
  4 48  1  0
  7 49  1  0
  8 50  1  0
 10 51  1  0
 11 52  1  0
 13 53  1  0
 16 54  1  0
 17 55  1  0
 18 56  1  0
 23 57  1  0
 29 58  1  0
 30 59  1  0
 30 60  1  0
 32 61  1  0
 32 62  1  0
 33 63  1  0
 33 64  1  0
 35 65  1  0
 35 66  1  0
 36 67  1  0
 37 68  1  0
 37 69  1  0
 38 70  1  0
 38 71  1  0
 39 72  1  0
 39 73  1  0
 40 74  1  0
 41 75  1  0
 41 76  1  0
M  END
>  <candidate_id>  (1) 
CAND_454e8d3cd4

>  <source_generator>  (1) 
v5_3_model_guided_macrocycle

>  <parent_mol_id>  (1) 
JAK2_4424830aa8

>  <canonical_smiles>  (1) 
CN1CCN2c3ccc(cc3)-c3cnc4cccc(c4n3)-c3cc(F)c(c(F)c3)CN3CCOCC3CCCC2C1

>  <inchikey>  (1) 
QBAFJGWJFQFIOJ-UHFFFAOYSA-N

>  <valid_rdkit>  (1) 
True

>  <unique_flag>  (1) 
True

>  <novel_flag>  (1) 
True

>  <mw>  (1) 
555.673

>  <logp>  (1) 
5.7471

>  <tpsa>  (1) 
44.73

>  <hbd>  (1) 
0

>  <hba>  (1) 
6

>  <rotatable_bonds>  (1) 
0

>  <qed>  (1) 
0.2756

>  <sa_score>  (1) 
5.416

>  <murcko_scaffold>  (1) 
c1cc2c3nc(cnc3c1)-c1ccc(cc1)N1CCNCC1CCCC1COCCN1Cc1ccc-2cc1

>  <max_ring_size>  (1) 
20

>  <has_macrocycle_12_20>  (1) 
True

>  <has_constrained_ring_8_11>  (1) 
False

>  <passes_basic_filters>  (1) 
True

>  <generation_notes>  (1) 
v5_3_model_guided_anchor_pair=3-24;anchor_scores=0.079,0.079;linker_length=3;target_ring=19;linker_prob=0.610;chemotype=oxa_aza

$$$$
