CAND_a6e2aca7fb
     RDKit          3D

 55 60  0  0  0  0  0  0  0  0999 V2000
   -3.0374    5.4654    1.0818 N   0  0  0  0  0  0  0  0  0  0  0  0
   -2.7380    4.6511    0.3119 C   0  0  0  0  0  0  0  0  0  0  0  0
   -2.3727    3.6274   -0.6658 C   0  0  1  0  0  0  0  0  0  0  0  0
   -0.9380    3.7668   -1.1719 C   0  0  0  0  0  0  0  0  0  0  0  0
   -0.5938    2.3542   -1.6769 C   0  0  0  0  0  0  0  0  0  0  0  0
    0.9136    2.0122   -1.5748 C   0  0  0  0  0  0  0  0  0  0  0  0
    1.5943    2.0468    0.1268 S   0  0  0  0  0  0  0  0  0  0  0  0
    3.2586    1.3788   -0.1712 C   0  0  0  0  0  0  0  0  0  0  0  0
    3.3319   -0.1371   -0.2270 C   0  0  0  0  0  0  0  0  0  0  0  0
    4.5173   -0.7506   -0.9688 C   0  0  0  0  0  0  0  0  0  0  0  0
    3.1525   -0.8220   -1.5765 C   0  0  0  0  0  0  0  0  0  0  0  0
    2.8315   -0.8697    1.0188 C   0  0  0  0  0  0  0  0  0  0  0  0
    3.6791   -1.1813    2.0947 C   0  0  0  0  0  0  0  0  0  0  0  0
    3.3119   -1.8009    3.2532 N   0  0  0  0  0  0  0  0  0  0  0  0
    1.9868   -2.0441    3.2546 C   0  0  0  0  0  0  0  0  0  0  0  0
    1.2588   -2.5978    4.2707 N   0  0  0  0  0  0  0  0  0  0  0  0
   -0.0753   -2.6055    3.9315 C   0  0  0  0  0  0  0  0  0  0  0  0
   -0.2091   -2.0707    2.6569 C   0  0  0  0  0  0  0  0  0  0  0  0
    1.1049   -1.7501    2.2268 C   0  0  0  0  0  0  0  0  0  0  0  0
    1.5166   -1.1907    1.0607 N   0  0  0  0  0  0  0  0  0  0  0  0
   -1.4541   -1.8154    1.9457 C   0  0  0  0  0  0  0  0  0  0  0  0
   -2.5557   -1.9291    2.4724 O   0  0  0  0  0  0  0  0  0  0  0  0
   -1.2715   -1.3841    0.6582 N   0  0  0  0  0  0  0  0  0  0  0  0
   -2.3109   -0.7916   -0.1610 C   0  0  2  0  0  0  0  0  0  0  0  0
   -3.1855   -1.8778   -0.7347 C   0  0  0  0  0  0  0  0  0  0  0  0
   -2.7070   -2.8633   -1.7739 C   0  0  0  0  0  0  0  0  0  0  0  0
   -3.7472   -1.8359   -2.1360 C   0  0  0  0  0  0  0  0  0  0  0  0
   -1.5407    0.1027   -1.1719 C   0  0  0  0  0  0  0  0  0  0  0  0
   -0.8667   -0.3827   -2.0866 O   0  0  0  0  0  0  0  0  0  0  0  0
   -1.4959    1.4658   -0.9315 N   0  0  0  0  0  0  0  0  0  0  0  0
   -2.3837    2.2266   -0.0651 C   0  0  0  0  0  0  0  0  0  0  0  0
   -3.0576    3.6623   -1.5230 H   0  0  0  0  0  0  0  0  0  0  0  0
   -0.8515    4.5119   -1.9705 H   0  0  0  0  0  0  0  0  0  0  0  0
   -0.2779    4.0929   -0.3607 H   0  0  0  0  0  0  0  0  0  0  0  0
   -0.8879    2.2718   -2.7319 H   0  0  0  0  0  0  0  0  0  0  0  0
    1.4806    2.7337   -2.1731 H   0  0  0  0  0  0  0  0  0  0  0  0
    1.0943    1.0230   -1.9958 H   0  0  0  0  0  0  0  0  0  0  0  0
    3.6613    1.8337   -1.0835 H   0  0  0  0  0  0  0  0  0  0  0  0
    3.8960    1.7253    0.6505 H   0  0  0  0  0  0  0  0  0  0  0  0
    5.2422   -0.0899   -1.4321 H   0  0  0  0  0  0  0  0  0  0  0  0
    4.9481   -1.6814   -0.6145 H   0  0  0  0  0  0  0  0  0  0  0  0
    2.9673   -0.2220   -2.4597 H   0  0  0  0  0  0  0  0  0  0  0  0
    2.6448   -1.7816   -1.5992 H   0  0  0  0  0  0  0  0  0  0  0  0
    4.7332   -0.9214    2.0459 H   0  0  0  0  0  0  0  0  0  0  0  0
    1.6553   -2.9031    5.1481 H   0  0  0  0  0  0  0  0  0  0  0  0
   -0.8229   -2.9662    4.6268 H   0  0  0  0  0  0  0  0  0  0  0  0
   -0.3171   -1.3406    0.3001 H   0  0  0  0  0  0  0  0  0  0  0  0
   -2.9347   -0.1839    0.4978 H   0  0  0  0  0  0  0  0  0  0  0  0
   -3.8353   -2.2801    0.0395 H   0  0  0  0  0  0  0  0  0  0  0  0
   -3.0230   -3.8955   -1.6706 H   0  0  0  0  0  0  0  0  0  0  0  0
   -1.7111   -2.7536   -2.1873 H   0  0  0  0  0  0  0  0  0  0  0  0
   -4.7649   -2.1807   -2.2838 H   0  0  0  0  0  0  0  0  0  0  0  0
   -3.4501   -1.0470   -2.8169 H   0  0  0  0  0  0  0  0  0  0  0  0
   -1.9717    2.1924    0.9503 H   0  0  0  0  0  0  0  0  0  0  0  0
   -3.3920    1.8025   -0.0562 H   0  0  0  0  0  0  0  0  0  0  0  0
  1  2  3  0
  2  3  1  0
  3  4  1  0
  4  5  1  0
  5  6  1  0
  6  7  1  0
  7  8  1  0
  8  9  1  0
  9 10  1  0
 10 11  1  0
  9 12  1  0
 12 13  2  0
 13 14  1  0
 14 15  2  0
 15 16  1  0
 16 17  1  0
 17 18  2  0
 18 19  1  0
 19 20  2  0
 18 21  1  0
 21 22  2  0
 21 23  1  0
 23 24  1  0
 24 25  1  0
 25 26  1  0
 26 27  1  0
 24 28  1  0
 28 29  2  0
 28 30  1  0
 30 31  1  0
 31  3  1  0
 30  5  1  0
 11  9  1  0
 20 12  1  0
 27 25  1  0
 19 15  1  0
  3 32  1  6
  4 33  1  0
  4 34  1  0
  5 35  1  0
  6 36  1  0
  6 37  1  0
  8 38  1  0
  8 39  1  0
 10 40  1  0
 10 41  1  0
 11 42  1  0
 11 43  1  0
 13 44  1  0
 16 45  1  0
 17 46  1  0
 23 47  1  0
 24 48  1  1
 25 49  1  0
 26 50  1  0
 26 51  1  0
 27 52  1  0
 27 53  1  0
 31 54  1  0
 31 55  1  0
M  END
>  <candidate_id>  (1) 
CAND_a6e2aca7fb

>  <source_generator>  (1) 
v5_3_model_guided_macrocycle

>  <parent_mol_id>  (1) 
JAK2_9dcdbe0544

>  <canonical_smiles>  (1) 
N#C[C@H]1CC2CSCC3(CC3)c3cnc4[nH]cc(c4n3)C(=O)N[C@H](C3CC3)C(=O)N2C1

>  <inchikey>  (1) 
LPLMSPHZWKDSFN-ZYFOBHMOSA-N

>  <valid_rdkit>  (1) 
True

>  <unique_flag>  (1) 
True

>  <novel_flag>  (1) 
True

>  <mw>  (1) 
436.541

>  <logp>  (1) 
1.9854

>  <tpsa>  (1) 
114.77

>  <hbd>  (1) 
2

>  <hba>  (1) 
6

>  <rotatable_bonds>  (1) 
1

>  <qed>  (1) 
0.7065

>  <sa_score>  (1) 
4.756

>  <murcko_scaffold>  (1) 
O=C1N[C@H](C2CC2)C(=O)N2CCCC2CSCC2(CC2)c2cnc3[nH]cc1c3n2

>  <max_ring_size>  (1) 
14

>  <has_macrocycle_12_20>  (1) 
True

>  <has_constrained_ring_8_11>  (1) 
False

>  <passes_basic_filters>  (1) 
True

>  <generation_notes>  (1) 
v5_3_model_guided_anchor_pair=19-4;anchor_scores=0.691,0.079;linker_length=3;target_ring=13;linker_prob=0.234;chemotype=thioether

$$$$
