CAND_7f7760bbec
     RDKit          3D

 57 62  0  0  0  0  0  0  0  0999 V2000
   -4.5403   -2.7428    1.7860 N   0  0  0  0  0  0  0  0  0  0  0  0
   -3.4078   -2.4919    1.7999 C   0  0  0  0  0  0  0  0  0  0  0  0
   -1.9703   -2.1819    1.8382 C   0  0  1  0  0  0  0  0  0  0  0  0
   -1.1576   -3.1557    0.9879 C   0  0  0  0  0  0  0  0  0  0  0  0
   -1.2522   -2.5809   -0.4353 C   0  0  0  0  0  0  0  0  0  0  0  0
   -0.0738   -3.0113   -1.3469 C   0  0  0  0  0  0  0  0  0  0  0  0
    1.3766   -2.8120   -0.8503 C   0  0  0  0  0  0  0  0  0  0  0  0
    1.6515   -1.3628   -0.4981 C   0  0  0  0  0  0  0  0  0  0  0  0
    3.0550   -0.9012   -0.0902 C   0  0  0  0  0  0  0  0  0  0  0  0
    4.2556   -1.4211   -0.8588 C   0  0  0  0  0  0  0  0  0  0  0  0
    4.0152   -1.8854    0.5515 C   0  0  0  0  0  0  0  0  0  0  0  0
    3.0371    0.5812    0.3620 C   0  0  0  0  0  0  0  0  0  0  0  0
    4.1323    1.3017    0.8626 C   0  0  0  0  0  0  0  0  0  0  0  0
    4.1260    2.6155    1.2532 N   0  0  0  0  0  0  0  0  0  0  0  0
    2.9050    3.1594    1.0764 C   0  0  0  0  0  0  0  0  0  0  0  0
    2.5210    4.4497    1.3202 N   0  0  0  0  0  0  0  0  0  0  0  0
    1.1940    4.6108    0.9753 C   0  0  0  0  0  0  0  0  0  0  0  0
    0.7039    3.3960    0.5133 C   0  0  0  0  0  0  0  0  0  0  0  0
    1.7941    2.4973    0.5904 C   0  0  0  0  0  0  0  0  0  0  0  0
    1.8365    1.1958    0.2411 N   0  0  0  0  0  0  0  0  0  0  0  0
   -0.6370    3.1108    0.0045 C   0  0  0  0  0  0  0  0  0  0  0  0
   -1.4586    3.9957   -0.1991 O   0  0  0  0  0  0  0  0  0  0  0  0
   -0.8658    1.7722   -0.2379 N   0  0  0  0  0  0  0  0  0  0  0  0
   -1.9568    1.2478   -1.0482 C   0  0  2  0  0  0  0  0  0  0  0  0
   -3.3101    1.5950   -0.4739 C   0  0  0  0  0  0  0  0  0  0  0  0
   -4.5826    1.1219   -1.1382 C   0  0  0  0  0  0  0  0  0  0  0  0
   -4.2110    2.5741   -1.1927 C   0  0  0  0  0  0  0  0  0  0  0  0
   -1.7673   -0.2872   -1.2967 C   0  0  0  0  0  0  0  0  0  0  0  0
   -1.9474   -0.7490   -2.4289 O   0  0  0  0  0  0  0  0  0  0  0  0
   -1.4613   -1.1353   -0.2358 N   0  0  0  0  0  0  0  0  0  0  0  0
   -1.6759   -0.8354    1.1797 C   0  0  0  0  0  0  0  0  0  0  0  0
   -1.6359   -2.1889    2.8813 H   0  0  0  0  0  0  0  0  0  0  0  0
   -1.5171   -4.1893    1.0334 H   0  0  0  0  0  0  0  0  0  0  0  0
   -0.1266   -3.1468    1.3560 H   0  0  0  0  0  0  0  0  0  0  0  0
   -2.1753   -2.9479   -0.9054 H   0  0  0  0  0  0  0  0  0  0  0  0
   -0.1684   -2.5152   -2.3199 H   0  0  0  0  0  0  0  0  0  0  0  0
   -0.1927   -4.0843   -1.5489 H   0  0  0  0  0  0  0  0  0  0  0  0
    1.5729   -3.4639    0.0068 H   0  0  0  0  0  0  0  0  0  0  0  0
    2.0532   -3.1429   -1.6460 H   0  0  0  0  0  0  0  0  0  0  0  0
    1.0131   -1.1285    0.3563 H   0  0  0  0  0  0  0  0  0  0  0  0
    1.3310   -0.7441   -1.3469 H   0  0  0  0  0  0  0  0  0  0  0  0
    4.0997   -2.1298   -1.6644 H   0  0  0  0  0  0  0  0  0  0  0  0
    5.0947   -0.7593   -1.0443 H   0  0  0  0  0  0  0  0  0  0  0  0
    4.6944   -1.5437    1.3244 H   0  0  0  0  0  0  0  0  0  0  0  0
    3.7100   -2.9155    0.6953 H   0  0  0  0  0  0  0  0  0  0  0  0
    5.1014    0.8221    0.9664 H   0  0  0  0  0  0  0  0  0  0  0  0
    3.1377    5.1668    1.6754 H   0  0  0  0  0  0  0  0  0  0  0  0
    0.7101    5.5745    1.0751 H   0  0  0  0  0  0  0  0  0  0  0  0
   -0.0720    1.1503   -0.1020 H   0  0  0  0  0  0  0  0  0  0  0  0
   -1.8455    1.7268   -2.0300 H   0  0  0  0  0  0  0  0  0  0  0  0
   -3.3059    1.6751    0.6063 H   0  0  0  0  0  0  0  0  0  0  0  0
   -5.4098    0.8309   -0.5001 H   0  0  0  0  0  0  0  0  0  0  0  0
   -4.5177    0.5518   -2.0592 H   0  0  0  0  0  0  0  0  0  0  0  0
   -3.8829    2.9858   -2.1407 H   0  0  0  0  0  0  0  0  0  0  0  0
   -4.7744    3.2744   -0.5860 H   0  0  0  0  0  0  0  0  0  0  0  0
   -2.4772   -0.1150    1.3330 H   0  0  0  0  0  0  0  0  0  0  0  0
   -0.7448   -0.4148    1.5730 H   0  0  0  0  0  0  0  0  0  0  0  0
  1  2  3  0
  2  3  1  0
  3  4  1  0
  4  5  1  0
  5  6  1  0
  6  7  1  0
  7  8  1  0
  8  9  1  0
  9 10  1  0
 10 11  1  0
  9 12  1  0
 12 13  2  0
 13 14  1  0
 14 15  2  0
 15 16  1  0
 16 17  1  0
 17 18  2  0
 18 19  1  0
 19 20  2  0
 18 21  1  0
 21 22  2  0
 21 23  1  0
 23 24  1  0
 24 25  1  0
 25 26  1  0
 26 27  1  0
 24 28  1  0
 28 29  2  0
 28 30  1  0
 30 31  1  0
 31  3  1  0
 30  5  1  0
 11  9  1  0
 20 12  1  0
 27 25  1  0
 19 15  1  0
  3 32  1  1
  4 33  1  0
  4 34  1  0
  5 35  1  0
  6 36  1  0
  6 37  1  0
  7 38  1  0
  7 39  1  0
  8 40  1  0
  8 41  1  0
 10 42  1  0
 10 43  1  0
 11 44  1  0
 11 45  1  0
 13 46  1  0
 16 47  1  0
 17 48  1  0
 23 49  1  0
 24 50  1  6
 25 51  1  0
 26 52  1  0
 26 53  1  0
 27 54  1  0
 27 55  1  0
 31 56  1  0
 31 57  1  0
M  END
>  <candidate_id>  (1) 
CAND_7f7760bbec

>  <source_generator>  (1) 
v5_3_model_guided_macrocycle

>  <parent_mol_id>  (1) 
JAK2_9dcdbe0544

>  <canonical_smiles>  (1) 
N#C[C@H]1CC2CCCC3(CC3)c3cnc4[nH]cc(c4n3)C(=O)N[C@H](C3CC3)C(=O)N2C1

>  <inchikey>  (1) 
SZNOMDJPNRVXHW-JGNDPHQUSA-N

>  <valid_rdkit>  (1) 
True

>  <unique_flag>  (1) 
True

>  <novel_flag>  (1) 
True

>  <mw>  (1) 
418.501

>  <logp>  (1) 
2.4225

>  <tpsa>  (1) 
114.77

>  <hbd>  (1) 
2

>  <hba>  (1) 
5

>  <rotatable_bonds>  (1) 
1

>  <qed>  (1) 
0.7381

>  <sa_score>  (1) 
4.656

>  <murcko_scaffold>  (1) 
O=C1N[C@H](C2CC2)C(=O)N2CCCC2CCCC2(CC2)c2cnc3[nH]cc1c3n2

>  <max_ring_size>  (1) 
14

>  <has_macrocycle_12_20>  (1) 
True

>  <has_constrained_ring_8_11>  (1) 
False

>  <passes_basic_filters>  (1) 
True

>  <generation_notes>  (1) 
v5_3_model_guided_anchor_pair=19-4;anchor_scores=0.691,0.079;linker_length=3;target_ring=13;linker_prob=0.234;chemotype=alkyl

$$$$
