CAND_9c6324c16c
     RDKit          3D

 74 80  0  0  0  0  0  0  0  0999 V2000
   -6.7716   -1.2802   -0.1111 C   0  0  0  0  0  0  0  0  0  0  0  0
   -5.7699   -1.6030   -1.1245 N   0  0  0  0  0  0  0  0  0  0  0  0
   -5.2082   -2.9494   -0.8856 C   0  0  0  0  0  0  0  0  0  0  0  0
   -3.7681   -3.1345   -1.4107 C   0  0  0  0  0  0  0  0  0  0  0  0
   -2.8593   -2.2004   -0.7286 N   0  0  0  0  0  0  0  0  0  0  0  0
   -1.5774   -2.5988   -0.3994 C   0  0  0  0  0  0  0  0  0  0  0  0
   -0.9541   -2.1574    0.7699 C   0  0  0  0  0  0  0  0  0  0  0  0
    0.3983   -2.4053    1.0138 C   0  0  0  0  0  0  0  0  0  0  0  0
    1.1805   -3.1319    0.1046 C   0  0  0  0  0  0  0  0  0  0  0  0
    0.5395   -3.6755   -1.0130 C   0  0  0  0  0  0  0  0  0  0  0  0
   -0.8173   -3.4100   -1.2558 C   0  0  0  0  0  0  0  0  0  0  0  0
    2.6342   -3.1666    0.2682 C   0  0  0  0  0  0  0  0  0  0  0  0
    3.4427   -4.2805    0.1507 C   0  0  0  0  0  0  0  0  0  0  0  0
    4.7951   -4.2202    0.2691 N   0  0  0  0  0  0  0  0  0  0  0  0
    5.3320   -2.9991    0.4893 C   0  0  0  0  0  0  0  0  0  0  0  0
    6.7088   -2.8515    0.5964 C   0  0  0  0  0  0  0  0  0  0  0  0
    7.2952   -1.6003    0.7987 C   0  0  0  0  0  0  0  0  0  0  0  0
    6.4928   -0.4668    0.8932 C   0  0  0  0  0  0  0  0  0  0  0  0
    5.0993   -0.5826    0.7979 C   0  0  0  0  0  0  0  0  0  0  0  0
    4.5194   -1.8489    0.6037 C   0  0  0  0  0  0  0  0  0  0  0  0
    3.1822   -1.9550    0.5073 N   0  0  0  0  0  0  0  0  0  0  0  0
    4.2324    0.6093    0.8644 C   0  0  0  0  0  0  0  0  0  0  0  0
    4.1428    1.4971   -0.2160 C   0  0  0  0  0  0  0  0  0  0  0  0
    3.1953    2.5237   -0.2129 C   0  0  0  0  0  0  0  0  0  0  0  0
    3.1592    3.3539   -1.2656 F   0  0  0  0  0  0  0  0  0  0  0  0
    2.3064    2.6991    0.8493 C   0  0  0  0  0  0  0  0  0  0  0  0
    2.4473    1.8506    1.9469 C   0  0  0  0  0  0  0  0  0  0  0  0
    1.6518    2.0042    3.0156 F   0  0  0  0  0  0  0  0  0  0  0  0
    3.3862    0.8201    1.9626 C   0  0  0  0  0  0  0  0  0  0  0  0
    1.2784    3.7983    0.8501 C   0  0  0  0  0  0  0  0  0  0  0  0
    0.3574    3.7786   -0.3018 N   0  0  0  0  0  0  0  0  0  0  0  0
   -0.0053    5.1753   -0.6545 C   0  0  0  0  0  0  0  0  0  0  0  0
   -1.3532    5.2867   -1.3736 C   0  0  0  0  0  0  0  0  0  0  0  0
   -2.4354    4.8536   -0.5409 O   0  0  0  0  0  0  0  0  0  0  0  0
   -2.0796    3.7669    0.3329 C   0  0  0  0  0  0  0  0  0  0  0  0
   -0.8743    2.9363   -0.1783 C   0  0  0  0  0  0  0  0  0  0  0  0
   -0.7583    1.6008    0.5928 C   0  0  0  0  0  0  0  0  0  0  0  0
   -1.9807    0.8503    0.6529 O   0  0  0  0  0  0  0  0  0  0  0  0
   -2.4092    0.3069   -0.6089 C   0  0  0  0  0  0  0  0  0  0  0  0
   -3.4138   -0.8606   -0.3562 C   0  0  0  0  0  0  0  0  0  0  0  0
   -4.7050   -0.5778   -1.1879 C   0  0  0  0  0  0  0  0  0  0  0  0
   -7.2626   -0.3295   -0.3464 H   0  0  0  0  0  0  0  0  0  0  0  0
   -6.3375   -1.2043    0.8923 H   0  0  0  0  0  0  0  0  0  0  0  0
   -7.5585   -2.0424   -0.0918 H   0  0  0  0  0  0  0  0  0  0  0  0
   -5.1968   -3.1746    0.1901 H   0  0  0  0  0  0  0  0  0  0  0  0
   -5.8629   -3.6883   -1.3618 H   0  0  0  0  0  0  0  0  0  0  0  0
   -3.4795   -4.1757   -1.2201 H   0  0  0  0  0  0  0  0  0  0  0  0
   -3.7270   -2.9690   -2.4940 H   0  0  0  0  0  0  0  0  0  0  0  0
   -1.5039   -1.5656    1.4972 H   0  0  0  0  0  0  0  0  0  0  0  0
    0.8569   -1.9669    1.8988 H   0  0  0  0  0  0  0  0  0  0  0  0
    1.1008   -4.2341   -1.7584 H   0  0  0  0  0  0  0  0  0  0  0  0
   -1.2510   -3.7796   -2.1816 H   0  0  0  0  0  0  0  0  0  0  0  0
    3.0341   -5.2664   -0.0402 H   0  0  0  0  0  0  0  0  0  0  0  0
    7.3393   -3.7339    0.5130 H   0  0  0  0  0  0  0  0  0  0  0  0
    8.3765   -1.5133    0.8749 H   0  0  0  0  0  0  0  0  0  0  0  0
    6.9543    0.5072    1.0425 H   0  0  0  0  0  0  0  0  0  0  0  0
    4.7740    1.3748   -1.0922 H   0  0  0  0  0  0  0  0  0  0  0  0
    3.4149    0.1527    2.8203 H   0  0  0  0  0  0  0  0  0  0  0  0
    1.8696    4.7261    0.8426 H   0  0  0  0  0  0  0  0  0  0  0  0
    0.7138    3.8305    1.7901 H   0  0  0  0  0  0  0  0  0  0  0  0
   -0.0741    5.7870    0.2557 H   0  0  0  0  0  0  0  0  0  0  0  0
    0.7859    5.5963   -1.2846 H   0  0  0  0  0  0  0  0  0  0  0  0
   -1.3632    4.7019   -2.3007 H   0  0  0  0  0  0  0  0  0  0  0  0
   -1.5487    6.3286   -1.6473 H   0  0  0  0  0  0  0  0  0  0  0  0
   -2.9790    3.1521    0.4338 H   0  0  0  0  0  0  0  0  0  0  0  0
   -1.8673    4.1867    1.3235 H   0  0  0  0  0  0  0  0  0  0  0  0
   -1.1178    2.6575   -1.2125 H   0  0  0  0  0  0  0  0  0  0  0  0
    0.0260    0.9666    0.1645 H   0  0  0  0  0  0  0  0  0  0  0  0
   -0.4953    1.7983    1.6357 H   0  0  0  0  0  0  0  0  0  0  0  0
   -1.5454   -0.0197   -1.1985 H   0  0  0  0  0  0  0  0  0  0  0  0
   -2.8935    1.1221   -1.1570 H   0  0  0  0  0  0  0  0  0  0  0  0
   -3.6915   -0.8910    0.7056 H   0  0  0  0  0  0  0  0  0  0  0  0
   -4.4172   -0.4983   -2.2457 H   0  0  0  0  0  0  0  0  0  0  0  0
   -5.1101    0.4084   -0.9249 H   0  0  0  0  0  0  0  0  0  0  0  0
  1  2  1  0
  2  3  1  0
  3  4  1  0
  4  5  1  0
  5  6  1  0
  6  7  2  0
  7  8  1  0
  8  9  2  0
  9 10  1  0
 10 11  2  0
  9 12  1  0
 12 13  2  0
 13 14  1  0
 14 15  2  0
 15 16  1  0
 16 17  2  0
 17 18  1  0
 18 19  2  0
 19 20  1  0
 20 21  2  0
 19 22  1  0
 22 23  2  0
 23 24  1  0
 24 25  1  0
 24 26  2  0
 26 27  1  0
 27 28  1  0
 27 29  2  0
 26 30  1  0
 30 31  1  0
 31 32  1  0
 32 33  1  0
 33 34  1  0
 34 35  1  0
 35 36  1  0
 36 37  1  0
 37 38  1  0
 38 39  1  0
 39 40  1  0
 40 41  1  0
 41  2  1  0
 40  5  1  0
 11  6  1  0
 21 12  1  0
 29 22  1  0
 36 31  1  0
 20 15  1  0
  1 42  1  0
  1 43  1  0
  1 44  1  0
  3 45  1  0
  3 46  1  0
  4 47  1  0
  4 48  1  0
  7 49  1  0
  8 50  1  0
 10 51  1  0
 11 52  1  0
 13 53  1  0
 16 54  1  0
 17 55  1  0
 18 56  1  0
 23 57  1  0
 29 58  1  0
 30 59  1  0
 30 60  1  0
 32 61  1  0
 32 62  1  0
 33 63  1  0
 33 64  1  0
 35 65  1  0
 35 66  1  0
 36 67  1  0
 37 68  1  0
 37 69  1  0
 39 70  1  0
 39 71  1  0
 40 72  1  0
 41 73  1  0
 41 74  1  0
M  END
>  <candidate_id>  (1) 
CAND_9c6324c16c

>  <source_generator>  (1) 
v5_3_model_guided_macrocycle

>  <parent_mol_id>  (1) 
JAK2_4424830aa8

>  <canonical_smiles>  (1) 
CN1CCN2c3ccc(cc3)-c3cnc4cccc(c4n3)-c3cc(F)c(c(F)c3)CN3CCOCC3COCC2C1

>  <inchikey>  (1) 
VAUZQGRYZWDNKQ-UHFFFAOYSA-N

>  <valid_rdkit>  (1) 
True

>  <unique_flag>  (1) 
True

>  <novel_flag>  (1) 
True

>  <mw>  (1) 
557.645

>  <logp>  (1) 
4.5934

>  <tpsa>  (1) 
53.96

>  <hbd>  (1) 
0

>  <hba>  (1) 
7

>  <rotatable_bonds>  (1) 
0

>  <qed>  (1) 
0.3135

>  <sa_score>  (1) 
5.054

>  <murcko_scaffold>  (1) 
c1cc2c3nc(cnc3c1)-c1ccc(cc1)N1CCNCC1COCC1COCCN1Cc1ccc-2cc1

>  <max_ring_size>  (1) 
20

>  <has_macrocycle_12_20>  (1) 
True

>  <has_constrained_ring_8_11>  (1) 
False

>  <passes_basic_filters>  (1) 
True

>  <generation_notes>  (1) 
v5_3_model_guided_anchor_pair=3-24;anchor_scores=0.079,0.079;linker_length=3;target_ring=19;linker_prob=0.610;chemotype=oxa

$$$$
