CAND_ffa2b05eef
     RDKit          3D

 53 58  0  0  0  0  0  0  0  0999 V2000
    7.6547    1.2433   -1.5626 N   0  0  0  0  0  0  0  0  0  0  0  0
    6.9078    0.5604   -0.9952 C   0  0  0  0  0  0  0  0  0  0  0  0
    5.9916   -0.3076   -0.2984 C   0  0  0  0  0  0  0  0  0  0  0  0
    4.5349   -0.2799   -0.8000 C   0  0  0  0  0  0  0  0  0  0  0  0
    4.1540   -0.1867    0.5917 N   0  0  0  0  0  0  0  0  0  0  0  0
    2.9668   -0.2087    1.2659 C   0  0  0  0  0  0  0  0  0  0  0  0
    2.9142    0.0121    2.4786 O   0  0  0  0  0  0  0  0  0  0  0  0
    1.7005   -0.5341    0.4270 C   0  0  2  0  0  0  0  0  0  0  0  0
    0.7475    0.5449    0.5619 N   0  0  0  0  0  0  0  0  0  0  0  0
    0.9735    1.7797   -0.0030 C   0  0  0  0  0  0  0  0  0  0  0  0
    2.0617    2.1181   -0.4576 O   0  0  0  0  0  0  0  0  0  0  0  0
   -0.2027    2.6322   -0.0690 C   0  0  0  0  0  0  0  0  0  0  0  0
   -0.2291    3.9939   -0.3402 C   0  0  0  0  0  0  0  0  0  0  0  0
   -1.5423    4.4069   -0.3767 N   0  0  0  0  0  0  0  0  0  0  0  0
   -2.3637    3.3333   -0.1738 C   0  0  0  0  0  0  0  0  0  0  0  0
   -3.7089    3.3271   -0.2039 N   0  0  0  0  0  0  0  0  0  0  0  0
   -4.1835    2.0594   -0.0125 C   0  0  0  0  0  0  0  0  0  0  0  0
   -3.4165    0.9008    0.2136 C   0  0  0  0  0  0  0  0  0  0  0  0
   -2.0696    0.9997    0.2726 N   0  0  0  0  0  0  0  0  0  0  0  0
   -1.5562    2.2315    0.0468 C   0  0  0  0  0  0  0  0  0  0  0  0
   -4.0171   -0.5096    0.3904 C   0  0  0  0  0  0  0  0  0  0  0  0
   -5.3717   -0.6395    1.0832 C   0  0  0  0  0  0  0  0  0  0  0  0
   -5.2683   -0.8999   -0.3891 C   0  0  0  0  0  0  0  0  0  0  0  0
   -2.9987   -1.6211    0.6830 C   0  0  0  0  0  0  0  0  0  0  0  0
   -2.4375   -2.2339   -0.5286 N   0  0  0  0  0  0  0  0  0  0  0  0
   -1.0166   -1.9628   -0.7564 C   0  0  0  0  0  0  0  0  0  0  0  0
   -0.1581   -2.5296    0.3377 C   0  0  0  0  0  0  0  0  0  0  0  0
    1.2249   -3.0561    0.0386 C   0  0  0  0  0  0  0  0  0  0  0  0
    1.0791   -1.8308    0.9074 C   0  0  0  0  0  0  0  0  0  0  0  0
    5.4690    0.2157    1.0506 C   0  0  0  0  0  0  0  0  0  0  0  0
    6.3759   -1.3343   -0.2170 H   0  0  0  0  0  0  0  0  0  0  0  0
    4.2315    0.5956   -1.3820 H   0  0  0  0  0  0  0  0  0  0  0  0
    4.2047   -1.1970   -1.2948 H   0  0  0  0  0  0  0  0  0  0  0  0
    1.9548   -0.6035   -0.6354 H   0  0  0  0  0  0  0  0  0  0  0  0
   -0.1838    0.3378    0.9101 H   0  0  0  0  0  0  0  0  0  0  0  0
    0.5776    4.6938   -0.5191 H   0  0  0  0  0  0  0  0  0  0  0  0
   -1.8710    5.3433   -0.5655 H   0  0  0  0  0  0  0  0  0  0  0  0
   -5.2674    1.9988   -0.0557 H   0  0  0  0  0  0  0  0  0  0  0  0
   -5.8969    0.2484    1.4152 H   0  0  0  0  0  0  0  0  0  0  0  0
   -5.5475   -1.4911    1.7336 H   0  0  0  0  0  0  0  0  0  0  0  0
   -5.3727   -1.9285   -0.7217 H   0  0  0  0  0  0  0  0  0  0  0  0
   -5.7155   -0.1884   -1.0733 H   0  0  0  0  0  0  0  0  0  0  0  0
   -2.2345   -1.2638    1.3835 H   0  0  0  0  0  0  0  0  0  0  0  0
   -3.5082   -2.4317    1.2191 H   0  0  0  0  0  0  0  0  0  0  0  0
   -2.9602   -1.9124   -1.3410 H   0  0  0  0  0  0  0  0  0  0  0  0
   -0.7448   -2.4570   -1.6967 H   0  0  0  0  0  0  0  0  0  0  0  0
   -0.8452   -0.8986   -0.9195 H   0  0  0  0  0  0  0  0  0  0  0  0
   -0.7313   -3.1501    1.0226 H   0  0  0  0  0  0  0  0  0  0  0  0
    1.6039   -2.9506   -0.9719 H   0  0  0  0  0  0  0  0  0  0  0  0
    1.5255   -3.9823    0.5179 H   0  0  0  0  0  0  0  0  0  0  0  0
    1.2061   -1.9491    1.9817 H   0  0  0  0  0  0  0  0  0  0  0  0
    5.5388    1.2943    1.2242 H   0  0  0  0  0  0  0  0  0  0  0  0
    5.8202   -0.3326    1.9286 H   0  0  0  0  0  0  0  0  0  0  0  0
  1  2  3  0
  2  3  1  0
  3  4  1  0
  4  5  1  0
  5  6  1  0
  6  7  2  0
  6  8  1  0
  8  9  1  0
  9 10  1  0
 10 11  2  0
 10 12  1  0
 12 13  2  0
 13 14  1  0
 14 15  1  0
 15 16  2  0
 16 17  1  0
 17 18  2  0
 18 19  1  0
 19 20  2  0
 18 21  1  0
 21 22  1  0
 22 23  1  0
 21 24  1  0
 24 25  1  0
 25 26  1  0
 26 27  1  0
 27 28  1  0
 28 29  1  0
  5 30  1  0
 30  3  1  0
 29  8  1  0
 20 12  1  0
 23 21  1  0
 29 27  1  0
 20 15  1  0
  3 31  1  0
  4 32  1  0
  4 33  1  0
  8 34  1  6
  9 35  1  0
 13 36  1  0
 14 37  1  0
 17 38  1  0
 22 39  1  0
 22 40  1  0
 23 41  1  0
 23 42  1  0
 24 43  1  0
 24 44  1  0
 25 45  1  0
 26 46  1  0
 26 47  1  0
 27 48  1  0
 28 49  1  0
 28 50  1  0
 29 51  1  0
 30 52  1  0
 30 53  1  0
M  END
>  <candidate_id>  (1) 
CAND_ffa2b05eef

>  <source_generator>  (1) 
v5_3_model_guided_macrocycle

>  <parent_mol_id>  (1) 
JAK2_c385760536

>  <canonical_smiles>  (1) 
N#CC1CN(C(=O)[C@@H]2NC(=O)c3c[nH]c4ncc(nc34)C3(CC3)CNCC3CC32)C1

>  <inchikey>  (1) 
WTHHTEOIGGPMKZ-QWQCLYJRSA-N

>  <valid_rdkit>  (1) 
True

>  <unique_flag>  (1) 
True

>  <novel_flag>  (1) 
True

>  <mw>  (1) 
405.462

>  <logp>  (1) 
0.3092

>  <tpsa>  (1) 
126.8

>  <hbd>  (1) 
3

>  <hba>  (1) 
6

>  <rotatable_bonds>  (1) 
1

>  <qed>  (1) 
0.6267

>  <sa_score>  (1) 
4.583

>  <murcko_scaffold>  (1) 
O=C1N[C@@H](C(=O)N2CCC2)C2CC2CNCC2(CC2)c2cnc3[nH]cc1c3n2

>  <max_ring_size>  (1) 
13

>  <has_macrocycle_12_20>  (1) 
True

>  <has_constrained_ring_8_11>  (1) 
False

>  <passes_basic_filters>  (1) 
True

>  <generation_notes>  (1) 
v5_3_model_guided_anchor_pair=18-24;anchor_scores=0.691,0.079;linker_length=3;target_ring=12;linker_prob=0.264;chemotype=aza

$$$$
