CAND_d4292dc600
     RDKit          3D

 56 61  0  0  0  0  0  0  0  0999 V2000
    1.8060    3.4560    4.0736 N   0  0  0  0  0  0  0  0  0  0  0  0
    0.7868    3.3455    3.5310 C   0  0  0  0  0  0  0  0  0  0  0  0
   -0.5027    3.2249    2.8393 C   0  0  1  0  0  0  0  0  0  0  0  0
   -0.4942    3.9140    1.4623 C   0  0  0  0  0  0  0  0  0  0  0  0
   -0.2515    2.7853    0.4526 C   0  0  0  0  0  0  0  0  0  0  0  0
    1.2745    2.5687    0.2061 C   0  0  0  0  0  0  0  0  0  0  0  0
    1.7217    1.3567   -0.4876 N   0  0  0  0  0  0  0  0  0  0  0  0
    1.2468    1.2433   -1.8672 C   0  0  0  0  0  0  0  0  0  0  0  0
    2.0960    0.2243   -2.6481 C   0  0  0  0  0  0  0  0  0  0  0  0
    3.3879    0.7665   -3.2493 C   0  0  0  0  0  0  0  0  0  0  0  0
    2.2270    0.4599   -4.1487 C   0  0  0  0  0  0  0  0  0  0  0  0
    2.0013   -1.2466   -2.1700 C   0  0  0  0  0  0  0  0  0  0  0  0
    2.9164   -2.2473   -2.5522 C   0  0  0  0  0  0  0  0  0  0  0  0
    2.9317   -3.5493   -2.1330 N   0  0  0  0  0  0  0  0  0  0  0  0
    1.9424   -3.7637   -1.2467 C   0  0  0  0  0  0  0  0  0  0  0  0
    1.6869   -4.9225   -0.5678 N   0  0  0  0  0  0  0  0  0  0  0  0
    0.6357   -4.7272    0.2997 C   0  0  0  0  0  0  0  0  0  0  0  0
    0.1821   -3.4231    0.1536 C   0  0  0  0  0  0  0  0  0  0  0  0
    1.0054   -2.8303   -0.8403 C   0  0  0  0  0  0  0  0  0  0  0  0
    0.9886   -1.5656   -1.3307 N   0  0  0  0  0  0  0  0  0  0  0  0
   -0.8769   -2.7735    0.9155 C   0  0  0  0  0  0  0  0  0  0  0  0
   -1.3595   -3.2626    1.9305 O   0  0  0  0  0  0  0  0  0  0  0  0
   -1.2357   -1.5562    0.4052 N   0  0  0  0  0  0  0  0  0  0  0  0
   -2.0718   -0.5773    1.0695 C   0  0  2  0  0  0  0  0  0  0  0  0
   -3.5239   -0.9045    0.8457 C   0  0  0  0  0  0  0  0  0  0  0  0
   -4.2710   -1.8180    1.7868 C   0  0  0  0  0  0  0  0  0  0  0  0
   -4.5837   -0.3484    1.7665 C   0  0  0  0  0  0  0  0  0  0  0  0
   -1.6815    0.7586    0.3826 C   0  0  0  0  0  0  0  0  0  0  0  0
   -1.9607    0.9608   -0.8043 O   0  0  0  0  0  0  0  0  0  0  0  0
   -0.9181    1.6591    1.0985 N   0  0  0  0  0  0  0  0  0  0  0  0
   -0.8553    1.7621    2.5468 C   0  0  0  0  0  0  0  0  0  0  0  0
   -1.2723    3.6794    3.4747 H   0  0  0  0  0  0  0  0  0  0  0  0
    0.2264    4.7342    1.3753 H   0  0  0  0  0  0  0  0  0  0  0  0
   -1.4931    4.3331    1.2812 H   0  0  0  0  0  0  0  0  0  0  0  0
   -0.7288    3.0199   -0.5054 H   0  0  0  0  0  0  0  0  0  0  0  0
    1.7866    2.5456    1.1730 H   0  0  0  0  0  0  0  0  0  0  0  0
    1.6717    3.4503   -0.3137 H   0  0  0  0  0  0  0  0  0  0  0  0
    2.7405    1.3399   -0.4870 H   0  0  0  0  0  0  0  0  0  0  0  0
    1.3125    2.2203   -2.3632 H   0  0  0  0  0  0  0  0  0  0  0  0
    0.2004    0.9358   -1.9044 H   0  0  0  0  0  0  0  0  0  0  0  0
    4.2691    0.1407   -3.3091 H   0  0  0  0  0  0  0  0  0  0  0  0
    3.6349    1.8116   -3.0871 H   0  0  0  0  0  0  0  0  0  0  0  0
    1.6867    1.2916   -4.5891 H   0  0  0  0  0  0  0  0  0  0  0  0
    2.3024   -0.3941   -4.8129 H   0  0  0  0  0  0  0  0  0  0  0  0
    3.7166   -2.0198   -3.2499 H   0  0  0  0  0  0  0  0  0  0  0  0
    2.2277   -5.7689   -0.6725 H   0  0  0  0  0  0  0  0  0  0  0  0
    0.3033   -5.5202    0.9577 H   0  0  0  0  0  0  0  0  0  0  0  0
   -0.7587   -1.2426   -0.4413 H   0  0  0  0  0  0  0  0  0  0  0  0
   -1.8227   -0.5844    2.1334 H   0  0  0  0  0  0  0  0  0  0  0  0
   -3.7685   -0.9701   -0.2104 H   0  0  0  0  0  0  0  0  0  0  0  0
   -4.9901   -2.5043    1.3540 H   0  0  0  0  0  0  0  0  0  0  0  0
   -3.7446   -2.2208    2.6454 H   0  0  0  0  0  0  0  0  0  0  0  0
   -4.2817    0.2402    2.6245 H   0  0  0  0  0  0  0  0  0  0  0  0
   -5.5232   -0.0371    1.3234 H   0  0  0  0  0  0  0  0  0  0  0  0
   -1.8328    1.5048    2.9682 H   0  0  0  0  0  0  0  0  0  0  0  0
   -0.1131    1.0455    2.9152 H   0  0  0  0  0  0  0  0  0  0  0  0
  1  2  3  0
  2  3  1  0
  3  4  1  0
  4  5  1  0
  5  6  1  0
  6  7  1  0
  7  8  1  0
  8  9  1  0
  9 10  1  0
 10 11  1  0
  9 12  1  0
 12 13  2  0
 13 14  1  0
 14 15  2  0
 15 16  1  0
 16 17  1  0
 17 18  2  0
 18 19  1  0
 19 20  2  0
 18 21  1  0
 21 22  2  0
 21 23  1  0
 23 24  1  0
 24 25  1  0
 25 26  1  0
 26 27  1  0
 24 28  1  0
 28 29  2  0
 28 30  1  0
 30 31  1  0
 31  3  1  0
 30  5  1  0
 11  9  1  0
 20 12  1  0
 27 25  1  0
 19 15  1  0
  3 32  1  1
  4 33  1  0
  4 34  1  0
  5 35  1  0
  6 36  1  0
  6 37  1  0
  7 38  1  0
  8 39  1  0
  8 40  1  0
 10 41  1  0
 10 42  1  0
 11 43  1  0
 11 44  1  0
 13 45  1  0
 16 46  1  0
 17 47  1  0
 23 48  1  0
 24 49  1  1
 25 50  1  0
 26 51  1  0
 26 52  1  0
 27 53  1  0
 27 54  1  0
 31 55  1  0
 31 56  1  0
M  END
>  <candidate_id>  (1) 
CAND_d4292dc600

>  <source_generator>  (1) 
v5_3_model_guided_macrocycle

>  <parent_mol_id>  (1) 
JAK2_9dcdbe0544

>  <canonical_smiles>  (1) 
N#C[C@H]1CC2CNCC3(CC3)c3cnc4[nH]cc(c4n3)C(=O)N[C@H](C3CC3)C(=O)N2C1

>  <inchikey>  (1) 
GDOIQDMSOKVZOZ-ZYFOBHMOSA-N

>  <valid_rdkit>  (1) 
True

>  <unique_flag>  (1) 
True

>  <novel_flag>  (1) 
True

>  <mw>  (1) 
419.489

>  <logp>  (1) 
0.8418

>  <tpsa>  (1) 
126.8

>  <hbd>  (1) 
3

>  <hba>  (1) 
6

>  <rotatable_bonds>  (1) 
1

>  <qed>  (1) 
0.6287

>  <sa_score>  (1) 
4.661

>  <murcko_scaffold>  (1) 
O=C1N[C@H](C2CC2)C(=O)N2CCCC2CNCC2(CC2)c2cnc3[nH]cc1c3n2

>  <max_ring_size>  (1) 
14

>  <has_macrocycle_12_20>  (1) 
True

>  <has_constrained_ring_8_11>  (1) 
False

>  <passes_basic_filters>  (1) 
True

>  <generation_notes>  (1) 
v5_3_model_guided_anchor_pair=19-4;anchor_scores=0.691,0.079;linker_length=3;target_ring=13;linker_prob=0.234;chemotype=aza

$$$$
