CAND_aaa379f29a
     RDKit          3D

 57 61  0  0  0  0  0  0  0  0999 V2000
   -3.5366   -1.5436    2.0729 C   0  0  0  0  0  0  0  0  0  0  0  0
   -3.7737   -0.4413    1.0135 C   0  0  0  0  0  0  0  0  0  0  0  0
   -4.6468   -1.0343   -0.1041 C   0  0  0  0  0  0  0  0  0  0  0  0
   -4.5819    0.6787    1.7128 C   0  0  0  0  0  0  0  0  0  0  0  0
   -2.3979    0.1286    0.5221 C   0  0  1  0  0  0  0  0  0  0  0  0
   -1.3506   -0.8745    0.2681 N   0  0  0  0  0  0  0  0  0  0  0  0
   -1.3130   -1.7008   -0.8248 C   0  0  0  0  0  0  0  0  0  0  0  0
   -2.2087   -1.7614   -1.6570 O   0  0  0  0  0  0  0  0  0  0  0  0
   -0.0854   -2.4730   -0.9715 C   0  0  0  0  0  0  0  0  0  0  0  0
   -0.0022   -3.6577   -1.6948 C   0  0  0  0  0  0  0  0  0  0  0  0
    1.3093   -4.0512   -1.7449 N   0  0  0  0  0  0  0  0  0  0  0  0
    2.0851   -3.1192   -1.1195 C   0  0  0  0  0  0  0  0  0  0  0  0
    3.4290   -3.1176   -1.0975 N   0  0  0  0  0  0  0  0  0  0  0  0
    3.8941   -1.9938   -0.4929 C   0  0  0  0  0  0  0  0  0  0  0  0
    3.1130   -0.9972    0.1158 C   0  0  0  0  0  0  0  0  0  0  0  0
    1.7499   -1.0958    0.1340 N   0  0  0  0  0  0  0  0  0  0  0  0
    1.2477   -2.1585   -0.5627 C   0  0  0  0  0  0  0  0  0  0  0  0
    3.7658    0.2558    0.7391 C   0  0  0  0  0  0  0  0  0  0  0  0
    5.1567    0.1718    1.3622 C   0  0  0  0  0  0  0  0  0  0  0  0
    3.9580    0.2002    2.2547 C   0  0  0  0  0  0  0  0  0  0  0  0
    3.3147    1.6138    0.2000 C   0  0  0  0  0  0  0  0  0  0  0  0
    3.1791    1.6723   -1.6121 S   0  0  0  0  0  0  0  0  0  0  0  0
    1.8354    2.8867   -1.9024 C   0  0  0  0  0  0  0  0  0  0  0  0
    0.5721    2.8038   -1.0427 C   0  0  0  0  0  0  0  0  0  0  0  0
    0.6568    3.7295    0.0796 C   0  0  0  0  0  0  0  0  0  0  0  0
    0.7615    4.4536    0.9800 N   0  0  0  0  0  0  0  0  0  0  0  0
   -0.8147    2.8879   -1.7731 C   0  0  0  0  0  0  0  0  0  0  0  0
   -1.2071    1.7523   -0.9555 N   0  0  0  0  0  0  0  0  0  0  0  0
    0.1444    1.3749   -0.6496 C   0  0  0  0  0  0  0  0  0  0  0  0
   -2.4312    1.2743   -0.5576 C   0  0  0  0  0  0  0  0  0  0  0  0
   -3.4587    1.8571   -0.9017 O   0  0  0  0  0  0  0  0  0  0  0  0
   -2.9221   -1.1708    2.9002 H   0  0  0  0  0  0  0  0  0  0  0  0
   -4.4844   -1.8958    2.4967 H   0  0  0  0  0  0  0  0  0  0  0  0
   -3.0325   -2.4167    1.6448 H   0  0  0  0  0  0  0  0  0  0  0  0
   -4.7377   -0.3604   -0.9603 H   0  0  0  0  0  0  0  0  0  0  0  0
   -5.6624   -1.2333    0.2594 H   0  0  0  0  0  0  0  0  0  0  0  0
   -4.2595   -1.9928   -0.4590 H   0  0  0  0  0  0  0  0  0  0  0  0
   -5.4899    0.2778    2.1791 H   0  0  0  0  0  0  0  0  0  0  0  0
   -4.9033    1.4559    1.0143 H   0  0  0  0  0  0  0  0  0  0  0  0
   -3.9944    1.1578    2.5042 H   0  0  0  0  0  0  0  0  0  0  0  0
   -1.9858    0.6552    1.3984 H   0  0  0  0  0  0  0  0  0  0  0  0
   -0.5639   -0.9175    0.9068 H   0  0  0  0  0  0  0  0  0  0  0  0
   -0.7720   -4.2252   -2.2036 H   0  0  0  0  0  0  0  0  0  0  0  0
    1.6780   -4.8519   -2.2386 H   0  0  0  0  0  0  0  0  0  0  0  0
    4.9760   -1.9019   -0.5202 H   0  0  0  0  0  0  0  0  0  0  0  0
    5.7917    1.0520    1.3354 H   0  0  0  0  0  0  0  0  0  0  0  0
    5.7232   -0.7519    1.3325 H   0  0  0  0  0  0  0  0  0  0  0  0
    3.7794    1.0978    2.8376 H   0  0  0  0  0  0  0  0  0  0  0  0
    3.6922   -0.7117    2.7801 H   0  0  0  0  0  0  0  0  0  0  0  0
    4.0192    2.3991    0.4962 H   0  0  0  0  0  0  0  0  0  0  0  0
    2.3699    1.8474    0.6854 H   0  0  0  0  0  0  0  0  0  0  0  0
    2.2784    3.8896   -1.8648 H   0  0  0  0  0  0  0  0  0  0  0  0
    1.5615    2.7359   -2.9534 H   0  0  0  0  0  0  0  0  0  0  0  0
   -0.8149    2.6485   -2.8412 H   0  0  0  0  0  0  0  0  0  0  0  0
   -1.4062    3.7907   -1.5957 H   0  0  0  0  0  0  0  0  0  0  0  0
    0.4841    0.5844   -1.3217 H   0  0  0  0  0  0  0  0  0  0  0  0
    0.3113    1.1160    0.3974 H   0  0  0  0  0  0  0  0  0  0  0  0
  1  2  1  0
  2  3  1  0
  2  4  1  0
  2  5  1  0
  5  6  1  0
  6  7  1  0
  7  8  2  0
  7  9  1  0
  9 10  2  0
 10 11  1  0
 11 12  1  0
 12 13  2  0
 13 14  1  0
 14 15  2  0
 15 16  1  0
 16 17  2  0
 15 18  1  0
 18 19  1  0
 19 20  1  0
 18 21  1  0
 21 22  1  0
 22 23  1  0
 23 24  1  0
 24 25  1  0
 25 26  3  0
 24 27  1  0
 27 28  1  0
 28 29  1  0
 28 30  1  0
 30 31  2  0
 30  5  1  0
 17  9  1  0
 20 18  1  0
 29 24  1  0
 17 12  1  0
  1 32  1  0
  1 33  1  0
  1 34  1  0
  3 35  1  0
  3 36  1  0
  3 37  1  0
  4 38  1  0
  4 39  1  0
  4 40  1  0
  5 41  1  1
  6 42  1  0
 10 43  1  0
 11 44  1  0
 14 45  1  0
 19 46  1  0
 19 47  1  0
 20 48  1  0
 20 49  1  0
 21 50  1  0
 21 51  1  0
 23 52  1  0
 23 53  1  0
 27 54  1  0
 27 55  1  0
 29 56  1  0
 29 57  1  0
M  END
>  <candidate_id>  (1) 
CAND_aaa379f29a

>  <source_generator>  (1) 
v5_3_model_guided_macrocycle

>  <parent_mol_id>  (1) 
JAK2_1a53985c87

>  <canonical_smiles>  (1) 
CC(C)(C)[C@H]1NC(=O)c2c[nH]c3ncc(nc23)C2(CC2)CSCC2(C#N)CN(C2)C1=O

>  <inchikey>  (1) 
HDHLLIARLPEAJD-INIZCTEOSA-N

>  <valid_rdkit>  (1) 
True

>  <unique_flag>  (1) 
True

>  <novel_flag>  (1) 
True

>  <mw>  (1) 
438.557

>  <logp>  (1) 
2.233

>  <tpsa>  (1) 
114.77

>  <hbd>  (1) 
2

>  <hba>  (1) 
6

>  <rotatable_bonds>  (1) 
0

>  <qed>  (1) 
0.6518

>  <sa_score>  (1) 
4.142

>  <murcko_scaffold>  (1) 
O=C1NCC(=O)N2CC(CSCC3(CC3)c3cnc4[nH]cc1c4n3)C2

>  <max_ring_size>  (1) 
15

>  <has_macrocycle_12_20>  (1) 
True

>  <has_constrained_ring_8_11>  (1) 
False

>  <passes_basic_filters>  (1) 
True

>  <generation_notes>  (1) 
v5_3_model_guided_anchor_pair=15-24;anchor_scores=0.691,0.691;linker_length=3;target_ring=14;linker_prob=0.291;chemotype=thioether

$$$$
