CAND_6e7e0ee6d7
     RDKit          3D

 77 82  0  0  0  0  0  0  0  0999 V2000
    6.9955    2.9015   -0.7777 C   0  0  0  0  0  0  0  0  0  0  0  0
    5.6006    2.8136   -1.3058 C   0  0  0  0  0  0  0  0  0  0  0  0
    5.2076    3.6129   -2.3580 C   0  0  0  0  0  0  0  0  0  0  0  0
    3.9748    3.6075   -2.8922 N   0  0  0  0  0  0  0  0  0  0  0  0
    3.0699    2.7981   -2.3258 C   0  0  0  0  0  0  0  0  0  0  0  0
    3.3578    1.9651   -1.3158 N   0  0  0  0  0  0  0  0  0  0  0  0
    4.6261    1.9410   -0.8404 C   0  0  0  0  0  0  0  0  0  0  0  0
    4.8745    0.8950    0.1735 C   0  0  0  0  0  0  0  0  0  0  0  0
    5.9365   -0.0172    0.0336 C   0  0  0  0  0  0  0  0  0  0  0  0
    6.1809   -1.0025    0.9916 C   0  0  0  0  0  0  0  0  0  0  0  0
    5.3516   -1.1115    2.1035 C   0  0  0  0  0  0  0  0  0  0  0  0
    4.2622   -0.2457    2.2594 C   0  0  0  0  0  0  0  0  0  0  0  0
    4.0330    0.7489    1.2914 C   0  0  0  0  0  0  0  0  0  0  0  0
    3.3245   -0.4100    3.4312 C   0  0  0  0  0  0  0  0  0  0  0  0
    2.0198   -0.8304    3.0375 O   0  0  0  0  0  0  0  0  0  0  0  0
    1.9940   -2.1470    2.4972 C   0  0  0  0  0  0  0  0  0  0  0  0
    0.5771   -2.5997    2.3005 C   0  0  0  0  0  0  0  0  0  0  0  0
   -0.3958   -1.9888    1.5903 C   0  0  0  0  0  0  0  0  0  0  0  0
   -1.7732   -2.6229    1.4759 C   0  0  0  0  0  0  0  0  0  0  0  0
   -2.1608   -2.9722    0.0324 C   0  0  0  0  0  0  0  0  0  0  0  0
   -3.6757   -2.9832   -0.2267 C   0  0  0  0  0  0  0  0  0  0  0  0
   -4.3154   -1.5854   -0.0379 C   0  0  0  0  0  0  0  0  0  0  0  0
   -5.1097   -1.4762    1.2705 C   0  0  0  0  0  0  0  0  0  0  0  0
   -6.5748   -1.6140    0.8841 C   0  0  0  0  0  0  0  0  0  0  0  0
   -6.5624   -1.8896   -0.6073 C   0  0  0  0  0  0  0  0  0  0  0  0
   -5.3020   -1.3267   -1.1130 N   0  0  0  0  0  0  0  0  0  0  0  0
   -5.4377    0.1217   -1.4031 C   0  0  0  0  0  0  0  0  0  0  0  0
   -4.2164    0.7344   -2.1249 C   0  0  0  0  0  0  0  0  0  0  0  0
   -3.2871    1.2603   -1.1697 O   0  0  0  0  0  0  0  0  0  0  0  0
   -2.0535    1.6272   -1.6403 C   0  0  0  0  0  0  0  0  0  0  0  0
   -1.7800    1.9124   -2.9795 C   0  0  0  0  0  0  0  0  0  0  0  0
   -0.4990    2.3182   -3.3740 C   0  0  0  0  0  0  0  0  0  0  0  0
    0.5413    2.4491   -2.4481 C   0  0  0  0  0  0  0  0  0  0  0  0
    0.2648    2.1372   -1.1159 C   0  0  0  0  0  0  0  0  0  0  0  0
   -1.0259    1.7563   -0.6924 C   0  0  0  0  0  0  0  0  0  0  0  0
   -1.2527    1.4992    0.7795 C   0  0  0  0  0  0  0  0  0  0  0  0
   -1.4001    0.1229    1.1107 O   0  0  0  0  0  0  0  0  0  0  0  0
   -0.2216   -0.6525    0.8936 C   0  0  0  0  0  0  0  0  0  0  0  0
    1.8018    2.8505   -2.8947 N   0  0  0  0  0  0  0  0  0  0  0  0
    7.6381    2.1627   -1.2656 H   0  0  0  0  0  0  0  0  0  0  0  0
    7.4199    3.8949   -0.9620 H   0  0  0  0  0  0  0  0  0  0  0  0
    7.0222    2.7499    0.3061 H   0  0  0  0  0  0  0  0  0  0  0  0
    5.8970    4.3117   -2.8251 H   0  0  0  0  0  0  0  0  0  0  0  0
    6.5789    0.0205   -0.8436 H   0  0  0  0  0  0  0  0  0  0  0  0
    7.0097   -1.6934    0.8605 H   0  0  0  0  0  0  0  0  0  0  0  0
    5.5463   -1.8922    2.8354 H   0  0  0  0  0  0  0  0  0  0  0  0
    3.1747    1.4112    1.4035 H   0  0  0  0  0  0  0  0  0  0  0  0
    3.2219    0.5577    3.9357 H   0  0  0  0  0  0  0  0  0  0  0  0
    3.7263   -1.1064    4.1773 H   0  0  0  0  0  0  0  0  0  0  0  0
    2.4881   -2.8359    3.1926 H   0  0  0  0  0  0  0  0  0  0  0  0
    2.5193   -2.1882    1.5368 H   0  0  0  0  0  0  0  0  0  0  0  0
    0.3513   -3.5562    2.7677 H   0  0  0  0  0  0  0  0  0  0  0  0
   -2.4924   -1.9380    1.9339 H   0  0  0  0  0  0  0  0  0  0  0  0
   -1.8336   -3.5394    2.0773 H   0  0  0  0  0  0  0  0  0  0  0  0
   -1.7541   -3.9625   -0.2096 H   0  0  0  0  0  0  0  0  0  0  0  0
   -1.7062   -2.2807   -0.6859 H   0  0  0  0  0  0  0  0  0  0  0  0
   -4.1616   -3.7376    0.4034 H   0  0  0  0  0  0  0  0  0  0  0  0
   -3.8103   -3.3164   -1.2647 H   0  0  0  0  0  0  0  0  0  0  0  0
   -3.5148   -0.8459   -0.0474 H   0  0  0  0  0  0  0  0  0  0  0  0
   -4.9484   -0.4941    1.7314 H   0  0  0  0  0  0  0  0  0  0  0  0
   -4.8272   -2.2328    2.0095 H   0  0  0  0  0  0  0  0  0  0  0  0
   -7.0666   -2.4194    1.4388 H   0  0  0  0  0  0  0  0  0  0  0  0
   -7.1077   -0.6816    1.1037 H   0  0  0  0  0  0  0  0  0  0  0  0
   -7.4517   -1.4977   -1.1129 H   0  0  0  0  0  0  0  0  0  0  0  0
   -6.5580   -2.9729   -0.7814 H   0  0  0  0  0  0  0  0  0  0  0  0
   -5.6686    0.6968   -0.4982 H   0  0  0  0  0  0  0  0  0  0  0  0
   -6.2860    0.2323   -2.0906 H   0  0  0  0  0  0  0  0  0  0  0  0
   -3.7432   -0.0189   -2.7677 H   0  0  0  0  0  0  0  0  0  0  0  0
   -4.5761    1.5632   -2.7468 H   0  0  0  0  0  0  0  0  0  0  0  0
   -2.5459    1.8436   -3.7445 H   0  0  0  0  0  0  0  0  0  0  0  0
   -0.3219    2.5302   -4.4257 H   0  0  0  0  0  0  0  0  0  0  0  0
    1.0536    2.2218   -0.3719 H   0  0  0  0  0  0  0  0  0  0  0  0
   -2.1690    2.0136    1.0923 H   0  0  0  0  0  0  0  0  0  0  0  0
   -0.4510    1.9348    1.3891 H   0  0  0  0  0  0  0  0  0  0  0  0
   -0.0882   -0.8198   -0.1804 H   0  0  0  0  0  0  0  0  0  0  0  0
    0.6482   -0.1029    1.2580 H   0  0  0  0  0  0  0  0  0  0  0  0
    1.8362    3.3912   -3.7456 H   0  0  0  0  0  0  0  0  0  0  0  0
  1  2  1  0
  2  3  2  0
  3  4  1  0
  4  5  2  0
  5  6  1  0
  6  7  2  0
  7  8  1  0
  8  9  2  0
  9 10  1  0
 10 11  2  0
 11 12  1  0
 12 13  2  0
 12 14  1  0
 14 15  1  0
 15 16  1  0
 16 17  1  0
 17 18  2  3
 18 19  1  0
 19 20  1  0
 20 21  1  0
 21 22  1  0
 22 23  1  0
 23 24  1  0
 24 25  1  0
 25 26  1  0
 26 27  1  0
 27 28  1  0
 28 29  1  0
 29 30  1  0
 30 31  2  0
 31 32  1  0
 32 33  2  0
 33 34  1  0
 34 35  2  0
 35 36  1  0
 36 37  1  0
 37 38  1  0
 33 39  1  0
  7  2  1  0
 13  8  1  0
 38 18  1  0
 39  5  1  0
 26 22  1  0
 35 30  1  0
  1 40  1  0
  1 41  1  0
  1 42  1  0
  3 43  1  0
  9 44  1  0
 10 45  1  0
 11 46  1  0
 13 47  1  0
 14 48  1  0
 14 49  1  0
 16 50  1  0
 16 51  1  0
 17 52  1  0
 19 53  1  0
 19 54  1  0
 20 55  1  0
 20 56  1  0
 21 57  1  0
 21 58  1  0
 22 59  1  0
 23 60  1  0
 23 61  1  0
 24 62  1  0
 24 63  1  0
 25 64  1  0
 25 65  1  0
 27 66  1  0
 27 67  1  0
 28 68  1  0
 28 69  1  0
 31 70  1  0
 32 71  1  0
 34 72  1  0
 36 73  1  0
 36 74  1  0
 38 75  1  0
 38 76  1  0
 39 77  1  0
M  END
>  <candidate_id>  (1) 
CAND_6e7e0ee6d7

>  <source_generator>  (1) 
v5_3_model_guided_macrocycle

>  <parent_mol_id>  (1) 
JAK2_5e05d7987e

>  <canonical_smiles>  (1) 
Cc1cnc2nc1-c1cccc(c1)COCC=C1CCCC3CCCN3CCOc3ccc(cc3COC1)N2

>  <inchikey>  (1) 
LZRDJBBIHSOYBR-UHFFFAOYSA-N

>  <valid_rdkit>  (1) 
True

>  <unique_flag>  (1) 
True

>  <novel_flag>  (1) 
True

>  <mw>  (1) 
526.681

>  <logp>  (1) 
6.1959

>  <tpsa>  (1) 
68.74

>  <hbd>  (1) 
1

>  <hba>  (1) 
7

>  <rotatable_bonds>  (1) 
0

>  <qed>  (1) 
0.3501

>  <sa_score>  (1) 
5.23

>  <murcko_scaffold>  (1) 
C1=C2CCCC3CCCN3CCOc3ccc(cc3COC2)Nc2nccc(n2)-c2cccc(c2)COC1

>  <max_ring_size>  (1) 
18

>  <has_macrocycle_12_20>  (1) 
True

>  <has_constrained_ring_8_11>  (1) 
False

>  <passes_basic_filters>  (1) 
True

>  <generation_notes>  (1) 
v5_3_model_guided_anchor_pair=17-31;anchor_scores=0.312,0.079;linker_length=3;target_ring=13;linker_prob=0.563;chemotype=oxa_aza

$$$$
