CAND_69ce89568d
     RDKit          3D

 69 74  0  0  0  0  0  0  0  0999 V2000
    0.3776    3.0969   -1.0472 C   0  0  0  0  0  0  0  0  0  0  0  0
   -0.5814    2.3890   -0.4144 C   0  0  0  0  0  0  0  0  0  0  0  0
   -1.0514    1.0379   -0.9098 C   0  0  0  0  0  0  0  0  0  0  0  0
   -0.2050    0.4800   -1.9107 O   0  0  0  0  0  0  0  0  0  0  0  0
   -0.7018   -0.7865   -2.3503 C   0  0  0  0  0  0  0  0  0  0  0  0
   -0.3013   -1.9159   -1.4277 C   0  0  0  0  0  0  0  0  0  0  0  0
    1.0701   -2.2395   -1.3306 C   0  0  0  0  0  0  0  0  0  0  0  0
    1.5228   -3.3338   -0.5886 C   0  0  0  0  0  0  0  0  0  0  0  0
    0.5655   -4.0973    0.0848 C   0  0  0  0  0  0  0  0  0  0  0  0
   -0.7939   -3.7631    0.0434 C   0  0  0  0  0  0  0  0  0  0  0  0
   -1.2383   -2.6578   -0.6887 C   0  0  0  0  0  0  0  0  0  0  0  0
   -2.5451   -2.2339   -0.7312 O   0  0  0  0  0  0  0  0  0  0  0  0
   -3.4558   -2.8516    0.1875 C   0  0  0  0  0  0  0  0  0  0  0  0
   -4.8283   -2.1380    0.1984 C   0  0  0  0  0  0  0  0  0  0  0  0
   -4.9915   -0.9214    1.0035 N   0  0  0  0  0  0  0  0  0  0  0  0
   -4.7879   -1.0616    2.4430 C   0  0  0  0  0  0  0  0  0  0  0  0
   -4.4863    0.3585    2.8969 C   0  0  0  0  0  0  0  0  0  0  0  0
   -3.6080    0.8682    1.7644 C   0  0  0  0  0  0  0  0  0  0  0  0
   -3.4841    2.3891    1.7117 C   0  0  0  0  0  0  0  0  0  0  0  0
   -2.6928    2.8086    0.6001 O   0  0  0  0  0  0  0  0  0  0  0  0
   -1.2847    2.8028    0.8546 C   0  0  0  0  0  0  0  0  0  0  0  0
   -4.2583    0.2524    0.5241 C   0  0  0  0  0  0  0  0  0  0  0  0
    2.8738   -3.6553   -0.4362 N   0  0  0  0  0  0  0  0  0  0  0  0
    4.0285   -2.8821   -0.5026 C   0  0  0  0  0  0  0  0  0  0  0  0
    5.1860   -3.5558   -0.4024 N   0  0  0  0  0  0  0  0  0  0  0  0
    6.3194   -2.8305   -0.3936 C   0  0  0  0  0  0  0  0  0  0  0  0
    6.3455   -1.4606   -0.4542 C   0  0  0  0  0  0  0  0  0  0  0  0
    5.1156   -0.8516   -0.5448 C   0  0  0  0  0  0  0  0  0  0  0  0
    3.9635   -1.5494   -0.5804 N   0  0  0  0  0  0  0  0  0  0  0  0
    4.9697    0.6100   -0.5417 C   0  0  0  0  0  0  0  0  0  0  0  0
    5.7354    1.5672    0.1020 C   0  0  0  0  0  0  0  0  0  0  0  0
    5.2327    2.8904   -0.0794 C   0  0  0  0  0  0  0  0  0  0  0  0
    4.1035    2.9167   -0.8711 C   0  0  0  0  0  0  0  0  0  0  0  0
    3.6970    1.3499   -1.4243 S   0  0  0  0  0  0  0  0  0  0  0  0
    3.2601    4.0901   -1.2574 C   0  0  0  0  0  0  0  0  0  0  0  0
    2.2985    4.2673   -0.2177 O   0  0  0  0  0  0  0  0  0  0  0  0
    0.9630    4.4280   -0.6897 C   0  0  0  0  0  0  0  0  0  0  0  0
    0.7961    2.6636   -1.9543 H   0  0  0  0  0  0  0  0  0  0  0  0
   -1.0915    0.3470   -0.0612 H   0  0  0  0  0  0  0  0  0  0  0  0
   -2.0517    1.1640   -1.3370 H   0  0  0  0  0  0  0  0  0  0  0  0
   -1.7834   -0.7409   -2.5240 H   0  0  0  0  0  0  0  0  0  0  0  0
   -0.2553   -0.9810   -3.3331 H   0  0  0  0  0  0  0  0  0  0  0  0
    1.7845   -1.6233   -1.8750 H   0  0  0  0  0  0  0  0  0  0  0  0
    0.8741   -4.9510    0.6836 H   0  0  0  0  0  0  0  0  0  0  0  0
   -1.4759   -4.3930    0.6043 H   0  0  0  0  0  0  0  0  0  0  0  0
   -3.6253   -3.8830   -0.1467 H   0  0  0  0  0  0  0  0  0  0  0  0
   -3.0349   -2.8765    1.1971 H   0  0  0  0  0  0  0  0  0  0  0  0
   -5.5699   -2.8588    0.5658 H   0  0  0  0  0  0  0  0  0  0  0  0
   -5.1174   -1.9080   -0.8349 H   0  0  0  0  0  0  0  0  0  0  0  0
   -3.9352   -1.7005    2.6925 H   0  0  0  0  0  0  0  0  0  0  0  0
   -5.6767   -1.4628    2.9392 H   0  0  0  0  0  0  0  0  0  0  0  0
   -5.4108    0.9438    2.9770 H   0  0  0  0  0  0  0  0  0  0  0  0
   -3.9743    0.3846    3.8635 H   0  0  0  0  0  0  0  0  0  0  0  0
   -2.6096    0.4241    1.8751 H   0  0  0  0  0  0  0  0  0  0  0  0
   -4.4758    2.8367    1.5813 H   0  0  0  0  0  0  0  0  0  0  0  0
   -3.0727    2.7910    2.6455 H   0  0  0  0  0  0  0  0  0  0  0  0
   -1.0077    3.8013    1.1990 H   0  0  0  0  0  0  0  0  0  0  0  0
   -1.0228    2.0965    1.6517 H   0  0  0  0  0  0  0  0  0  0  0  0
   -4.9738    0.9435    0.0643 H   0  0  0  0  0  0  0  0  0  0  0  0
   -3.5115    0.0088   -0.2296 H   0  0  0  0  0  0  0  0  0  0  0  0
    3.1084   -4.6092   -0.2115 H   0  0  0  0  0  0  0  0  0  0  0  0
    7.2372   -3.4070   -0.3231 H   0  0  0  0  0  0  0  0  0  0  0  0
    7.2744   -0.9096   -0.4313 H   0  0  0  0  0  0  0  0  0  0  0  0
    6.5937    1.3327    0.7190 H   0  0  0  0  0  0  0  0  0  0  0  0
    5.6603    3.7764    0.3744 H   0  0  0  0  0  0  0  0  0  0  0  0
    2.8037    3.9505   -2.2446 H   0  0  0  0  0  0  0  0  0  0  0  0
    3.8735    4.9965   -1.3045 H   0  0  0  0  0  0  0  0  0  0  0  0
    0.4008    4.9189    0.1076 H   0  0  0  0  0  0  0  0  0  0  0  0
    0.9370    5.1073   -1.5500 H   0  0  0  0  0  0  0  0  0  0  0  0
  1  2  2  0
  2  3  1  0
  3  4  1  0
  4  5  1  0
  5  6  1  0
  6  7  1  0
  7  8  2  0
  8  9  1  0
  9 10  2  0
 10 11  1  0
 11 12  1  0
 12 13  1  0
 13 14  1  0
 14 15  1  0
 15 16  1  0
 16 17  1  0
 17 18  1  0
 18 19  1  0
 19 20  1  0
 20 21  1  0
 18 22  1  0
  8 23  1  0
 23 24  1  0
 24 25  1  0
 25 26  2  0
 26 27  1  0
 27 28  2  0
 28 29  1  0
 28 30  1  0
 30 31  2  0
 31 32  1  0
 32 33  2  0
 33 34  1  0
 33 35  1  0
 35 36  1  0
 36 37  1  0
 37  1  1  0
 21  2  1  0
 29 24  2  0
 34 30  1  0
 11  6  2  0
 22 15  1  0
  1 38  1  0
  3 39  1  0
  3 40  1  0
  5 41  1  0
  5 42  1  0
  7 43  1  0
  9 44  1  0
 10 45  1  0
 13 46  1  0
 13 47  1  0
 14 48  1  0
 14 49  1  0
 16 50  1  0
 16 51  1  0
 17 52  1  0
 17 53  1  0
 18 54  1  0
 19 55  1  0
 19 56  1  0
 21 57  1  0
 21 58  1  0
 22 59  1  0
 22 60  1  0
 23 61  1  0
 26 62  1  0
 27 63  1  0
 31 64  1  0
 32 65  1  0
 35 66  1  0
 35 67  1  0
 37 68  1  0
 37 69  1  0
M  END
>  <candidate_id>  (1) 
CAND_69ce89568d

>  <source_generator>  (1) 
v5_3_model_guided_macrocycle

>  <parent_mol_id>  (1) 
JAK2_522c241c10

>  <canonical_smiles>  (1) 
C1=C2/COCc3cc(ccc3OCCN3CCC(COC2)C3)Nc2nccc(n2)-c2ccc(s2)COC/1

>  <inchikey>  (1) 
WQNUTQLWRXKRJU-QPSGOUHRSA-N

>  <valid_rdkit>  (1) 
True

>  <unique_flag>  (1) 
True

>  <novel_flag>  (1) 
True

>  <mw>  (1) 
520.655

>  <logp>  (1) 
4.6528

>  <tpsa>  (1) 
77.97

>  <hbd>  (1) 
1

>  <hba>  (1) 
9

>  <rotatable_bonds>  (1) 
0

>  <qed>  (1) 
0.4294

>  <sa_score>  (1) 
4.848

>  <murcko_scaffold>  (1) 
C1=C2/COCc3cc(ccc3OCCN3CCC(COC2)C3)Nc2nccc(n2)-c2ccc(s2)COC/1

>  <max_ring_size>  (1) 
18

>  <has_macrocycle_12_20>  (1) 
True

>  <has_constrained_ring_8_11>  (1) 
False

>  <passes_basic_filters>  (1) 
True

>  <generation_notes>  (1) 
v5_3_model_guided_anchor_pair=1-16;anchor_scores=0.312,0.079;linker_length=3;target_ring=14;linker_prob=0.414;chemotype=oxa

$$$$
