CAND_9d4c5cab6d
     RDKit          3D

 56 61  0  0  0  0  0  0  0  0999 V2000
    5.6459    2.2907    1.3624 N   0  0  0  0  0  0  0  0  0  0  0  0
    5.4636    1.2507    0.8817 C   0  0  0  0  0  0  0  0  0  0  0  0
    5.2684   -0.0814    0.2874 C   0  0  1  0  0  0  0  0  0  0  0  0
    5.1544   -1.1606    1.3667 C   0  0  0  0  0  0  0  0  0  0  0  0
    3.6833   -1.1219    1.7572 C   0  0  0  0  0  0  0  0  0  0  0  0
    2.9983   -0.7463    0.5345 N   0  0  0  0  0  0  0  0  0  0  0  0
    1.6295   -0.8832    0.4174 C   0  0  0  0  0  0  0  0  0  0  0  0
    0.9561   -1.2840    1.3732 O   0  0  0  0  0  0  0  0  0  0  0  0
    0.9621   -0.5015   -0.9316 C   0  0  2  0  0  0  0  0  0  0  0  0
    0.1350    0.6588   -0.6978 N   0  0  0  0  0  0  0  0  0  0  0  0
    0.5013    1.9685   -0.8603 C   0  0  0  0  0  0  0  0  0  0  0  0
    1.6014    2.3233   -1.2659 O   0  0  0  0  0  0  0  0  0  0  0  0
   -0.5598    2.8999   -0.4887 C   0  0  0  0  0  0  0  0  0  0  0  0
   -0.4843    4.2811   -0.3783 C   0  0  0  0  0  0  0  0  0  0  0  0
   -1.7135    4.7554    0.0341 N   0  0  0  0  0  0  0  0  0  0  0  0
   -2.5845    3.7106    0.1849 C   0  0  0  0  0  0  0  0  0  0  0  0
   -3.8696    3.7644    0.5892 N   0  0  0  0  0  0  0  0  0  0  0  0
   -4.4133    2.5085    0.6239 C   0  0  0  0  0  0  0  0  0  0  0  0
   -3.7601    1.3125    0.2853 C   0  0  0  0  0  0  0  0  0  0  0  0
   -2.4779    1.3379   -0.1241 N   0  0  0  0  0  0  0  0  0  0  0  0
   -1.8963    2.5605   -0.1546 C   0  0  0  0  0  0  0  0  0  0  0  0
   -4.4586   -0.0304    0.3143 C   0  0  0  0  0  0  0  0  0  0  0  0
   -4.7575   -0.6945    1.6331 C   0  0  0  0  0  0  0  0  0  0  0  0
   -3.7596   -1.3389    0.7002 C   0  0  0  0  0  0  0  0  0  0  0  0
   -2.3391   -1.4693    1.1696 C   0  0  0  0  0  0  0  0  0  0  0  0
   -1.4941   -2.2912    0.2981 N   0  0  0  0  0  0  0  0  0  0  0  0
   -1.3445   -1.7960   -1.0652 C   0  0  0  0  0  0  0  0  0  0  0  0
    0.1188   -1.6664   -1.5053 C   0  0  0  0  0  0  0  0  0  0  0  0
    0.4064   -2.0481   -2.9534 C   0  0  0  0  0  0  0  0  0  0  0  0
    0.8552   -2.9544   -1.8494 C   0  0  0  0  0  0  0  0  0  0  0  0
    3.9265   -0.1806   -0.4391 C   0  0  0  0  0  0  0  0  0  0  0  0
    6.1000   -0.2879   -0.3952 H   0  0  0  0  0  0  0  0  0  0  0  0
    5.3861   -2.1386    0.9259 H   0  0  0  0  0  0  0  0  0  0  0  0
    5.8157   -1.0103    2.2258 H   0  0  0  0  0  0  0  0  0  0  0  0
    3.3196   -2.0824    2.1346 H   0  0  0  0  0  0  0  0  0  0  0  0
    3.4833   -0.3492    2.5080 H   0  0  0  0  0  0  0  0  0  0  0  0
    1.7257   -0.2240   -1.6620 H   0  0  0  0  0  0  0  0  0  0  0  0
   -0.7626    0.4946   -0.2525 H   0  0  0  0  0  0  0  0  0  0  0  0
    0.3433    4.9596   -0.5431 H   0  0  0  0  0  0  0  0  0  0  0  0
   -1.9518    5.7206    0.2132 H   0  0  0  0  0  0  0  0  0  0  0  0
   -5.4520    2.4830    0.9437 H   0  0  0  0  0  0  0  0  0  0  0  0
   -5.2150   -0.1435   -0.4611 H   0  0  0  0  0  0  0  0  0  0  0  0
   -5.7195   -1.1810    1.7524 H   0  0  0  0  0  0  0  0  0  0  0  0
   -4.3854   -0.2383    2.5448 H   0  0  0  0  0  0  0  0  0  0  0  0
   -4.0940   -2.2489    0.2100 H   0  0  0  0  0  0  0  0  0  0  0  0
   -1.8655   -0.5068    1.3757 H   0  0  0  0  0  0  0  0  0  0  0  0
   -2.3684   -1.9844    2.1382 H   0  0  0  0  0  0  0  0  0  0  0  0
   -0.5724   -2.3236    0.7502 H   0  0  0  0  0  0  0  0  0  0  0  0
   -1.8429   -2.5325   -1.7092 H   0  0  0  0  0  0  0  0  0  0  0  0
   -1.8806   -0.8656   -1.2639 H   0  0  0  0  0  0  0  0  0  0  0  0
   -0.4142   -2.3816   -3.5805 H   0  0  0  0  0  0  0  0  0  0  0  0
    1.1635   -1.5009   -3.5045 H   0  0  0  0  0  0  0  0  0  0  0  0
    1.9182   -3.0240   -1.6487 H   0  0  0  0  0  0  0  0  0  0  0  0
    0.3298   -3.8947   -1.7127 H   0  0  0  0  0  0  0  0  0  0  0  0
    3.9860   -0.8900   -1.2725 H   0  0  0  0  0  0  0  0  0  0  0  0
    3.5599    0.7766   -0.8159 H   0  0  0  0  0  0  0  0  0  0  0  0
  1  2  3  0
  2  3  1  0
  3  4  1  0
  4  5  1  0
  5  6  1  0
  6  7  1  0
  7  8  2  0
  7  9  1  0
  9 10  1  0
 10 11  1  0
 11 12  2  0
 11 13  1  0
 13 14  2  0
 14 15  1  0
 15 16  1  0
 16 17  2  0
 17 18  1  0
 18 19  2  0
 19 20  1  0
 20 21  2  0
 19 22  1  0
 22 23  1  0
 23 24  1  0
 24 25  1  0
 25 26  1  0
 26 27  1  0
 27 28  1  0
 28 29  1  0
 29 30  1  0
  6 31  1  0
 31  3  1  0
 28  9  1  0
 21 13  1  0
 24 22  1  0
 30 28  1  0
 21 16  1  0
  3 32  1  6
  4 33  1  0
  4 34  1  0
  5 35  1  0
  5 36  1  0
  9 37  1  6
 10 38  1  0
 14 39  1  0
 15 40  1  0
 18 41  1  0
 22 42  1  0
 23 43  1  0
 23 44  1  0
 24 45  1  0
 25 46  1  0
 25 47  1  0
 26 48  1  0
 27 49  1  0
 27 50  1  0
 29 51  1  0
 29 52  1  0
 30 53  1  0
 30 54  1  0
 31 55  1  0
 31 56  1  0
M  END
>  <candidate_id>  (1) 
CAND_9d4c5cab6d

>  <source_generator>  (1) 
v5_3_model_guided_macrocycle

>  <parent_mol_id>  (1) 
JAK2_9dcdbe0544

>  <canonical_smiles>  (1) 
N#C[C@H]1CCN(C(=O)[C@@H]2NC(=O)c3c[nH]c4ncc(nc34)C3CC3CNCC23CC3)C1

>  <inchikey>  (1) 
IPHWYJUXNGKNHB-XILSRCRHSA-N

>  <valid_rdkit>  (1) 
True

>  <unique_flag>  (1) 
True

>  <novel_flag>  (1) 
True

>  <mw>  (1) 
419.489

>  <logp>  (1) 
0.9153

>  <tpsa>  (1) 
126.8

>  <hbd>  (1) 
3

>  <hba>  (1) 
6

>  <rotatable_bonds>  (1) 
1

>  <qed>  (1) 
0.6308

>  <sa_score>  (1) 
4.911

>  <murcko_scaffold>  (1) 
O=C1N[C@@H](C(=O)N2CCCC2)C2(CC2)CNCC2CC2c2cnc3[nH]cc1c3n2

>  <max_ring_size>  (1) 
13

>  <has_macrocycle_12_20>  (1) 
True

>  <has_constrained_ring_8_11>  (1) 
False

>  <passes_basic_filters>  (1) 
True

>  <generation_notes>  (1) 
v5_3_model_guided_anchor_pair=24-20;anchor_scores=0.691,0.079;linker_length=3;target_ring=12;linker_prob=0.278;chemotype=aza

$$$$
