CAND_8b6de06a0f
     RDKit          3D

 58 63  0  0  0  0  0  0  0  0999 V2000
   -0.6279    3.0752   -4.0183 N   0  0  0  0  0  0  0  0  0  0  0  0
   -1.3529    2.8877   -3.1335 C   0  0  0  0  0  0  0  0  0  0  0  0
   -2.2240    2.6467   -2.0080 C   0  0  0  0  0  0  0  0  0  0  0  0
   -1.5628    1.9054   -0.8339 C   0  0  0  0  0  0  0  0  0  0  0  0
   -2.6827    0.9939   -0.8661 N   0  0  0  0  0  0  0  0  0  0  0  0
   -3.1534   -0.0379   -0.1063 C   0  0  0  0  0  0  0  0  0  0  0  0
   -4.1781   -0.6311   -0.4596 O   0  0  0  0  0  0  0  0  0  0  0  0
   -2.4116   -0.4490    1.2011 C   0  0  2  0  0  0  0  0  0  0  0  0
   -1.1481    0.2075    1.4683 N   0  0  0  0  0  0  0  0  0  0  0  0
   -0.8929    0.9569    2.5912 C   0  0  0  0  0  0  0  0  0  0  0  0
   -1.7250    1.1843    3.4610 O   0  0  0  0  0  0  0  0  0  0  0  0
    0.4718    1.4612    2.6643 C   0  0  0  0  0  0  0  0  0  0  0  0
    1.0245    2.1795    3.7184 C   0  0  0  0  0  0  0  0  0  0  0  0
    2.3412    2.4494    3.4234 N   0  0  0  0  0  0  0  0  0  0  0  0
    2.6505    1.9272    2.1990 C   0  0  0  0  0  0  0  0  0  0  0  0
    3.8451    1.9802    1.5825 N   0  0  0  0  0  0  0  0  0  0  0  0
    3.7871    1.3586    0.3685 C   0  0  0  0  0  0  0  0  0  0  0  0
    2.6551    0.7479   -0.1993 C   0  0  0  0  0  0  0  0  0  0  0  0
    1.4795    0.7303    0.4830 N   0  0  0  0  0  0  0  0  0  0  0  0
    1.5056    1.3275    1.7009 C   0  0  0  0  0  0  0  0  0  0  0  0
    2.6413    0.0802   -1.5859 C   0  0  0  0  0  0  0  0  0  0  0  0
    1.6498   -1.0738   -1.7261 C   0  0  0  0  0  0  0  0  0  0  0  0
    2.0328   -2.3054   -0.9026 C   0  0  0  0  0  0  0  0  0  0  0  0
    0.8797   -3.1194   -0.6715 O   0  0  0  0  0  0  0  0  0  0  0  0
    0.1474   -2.7450    0.5005 C   0  0  0  0  0  0  0  0  0  0  0  0
   -1.3300   -2.5734    0.1444 C   0  0  0  0  0  0  0  0  0  0  0  0
   -2.1727   -1.9727    1.2695 C   0  0  0  0  0  0  0  0  0  0  0  0
   -2.1034   -2.6145    2.6495 C   0  0  0  0  0  0  0  0  0  0  0  0
   -3.3175   -2.8227    1.8014 C   0  0  0  0  0  0  0  0  0  0  0  0
    2.7433    1.0183   -2.7823 C   0  0  0  0  0  0  0  0  0  0  0  0
    3.8570    0.0562   -2.4950 C   0  0  0  0  0  0  0  0  0  0  0  0
   -3.1817    1.4565   -2.1510 C   0  0  0  0  0  0  0  0  0  0  0  0
   -2.7454    3.5566   -1.6793 H   0  0  0  0  0  0  0  0  0  0  0  0
   -0.6137    1.4149   -1.0647 H   0  0  0  0  0  0  0  0  0  0  0  0
   -1.4817    2.5035    0.0776 H   0  0  0  0  0  0  0  0  0  0  0  0
   -3.1075   -0.1661    2.0021 H   0  0  0  0  0  0  0  0  0  0  0  0
   -0.3957    0.0905    0.7968 H   0  0  0  0  0  0  0  0  0  0  0  0
    0.5871    2.5070    4.6533 H   0  0  0  0  0  0  0  0  0  0  0  0
    3.0007    2.9378    4.0125 H   0  0  0  0  0  0  0  0  0  0  0  0
    4.7318    1.3775   -0.1662 H   0  0  0  0  0  0  0  0  0  0  0  0
    1.5583   -1.3809   -2.7771 H   0  0  0  0  0  0  0  0  0  0  0  0
    0.6452   -0.7252   -1.4588 H   0  0  0  0  0  0  0  0  0  0  0  0
    2.5238   -2.0598    0.0452 H   0  0  0  0  0  0  0  0  0  0  0  0
    2.7476   -2.9075   -1.4755 H   0  0  0  0  0  0  0  0  0  0  0  0
    0.5537   -1.8391    0.9591 H   0  0  0  0  0  0  0  0  0  0  0  0
    0.2688   -3.5529    1.2301 H   0  0  0  0  0  0  0  0  0  0  0  0
   -1.7308   -3.5502   -0.1571 H   0  0  0  0  0  0  0  0  0  0  0  0
   -1.4101   -1.9557   -0.7576 H   0  0  0  0  0  0  0  0  0  0  0  0
   -2.2010   -1.9779    3.5238 H   0  0  0  0  0  0  0  0  0  0  0  0
   -1.4650   -3.4739    2.8167 H   0  0  0  0  0  0  0  0  0  0  0  0
   -3.4827   -3.8081    1.3796 H   0  0  0  0  0  0  0  0  0  0  0  0
   -4.2385   -2.3303    2.0950 H   0  0  0  0  0  0  0  0  0  0  0  0
    2.9242    2.0745   -2.6088 H   0  0  0  0  0  0  0  0  0  0  0  0
    2.1174    0.8311   -3.6491 H   0  0  0  0  0  0  0  0  0  0  0  0
    4.8052    0.4705   -2.1769 H   0  0  0  0  0  0  0  0  0  0  0  0
    3.9809   -0.7844   -3.1720 H   0  0  0  0  0  0  0  0  0  0  0  0
   -2.9750    0.7460   -2.9580 H   0  0  0  0  0  0  0  0  0  0  0  0
   -4.2446    1.7161   -2.1420 H   0  0  0  0  0  0  0  0  0  0  0  0
  1  2  3  0
  2  3  1  0
  3  4  1  0
  4  5  1  0
  5  6  1  0
  6  7  2  0
  6  8  1  0
  8  9  1  0
  9 10  1  0
 10 11  2  0
 10 12  1  0
 12 13  2  0
 13 14  1  0
 14 15  1  0
 15 16  2  0
 16 17  1  0
 17 18  2  0
 18 19  1  0
 19 20  2  0
 18 21  1  0
 21 22  1  0
 22 23  1  0
 23 24  1  0
 24 25  1  0
 25 26  1  0
 26 27  1  0
 27 28  1  0
 28 29  1  0
 21 30  1  0
 30 31  1  0
  5 32  1  0
 32  3  1  0
 27  8  1  0
 20 12  1  0
 31 21  1  0
 20 15  1  0
 29 27  1  0
  3 33  1  0
  4 34  1  0
  4 35  1  0
  8 36  1  1
  9 37  1  0
 13 38  1  0
 14 39  1  0
 17 40  1  0
 22 41  1  0
 22 42  1  0
 23 43  1  0
 23 44  1  0
 25 45  1  0
 25 46  1  0
 26 47  1  0
 26 48  1  0
 28 49  1  0
 28 50  1  0
 29 51  1  0
 29 52  1  0
 30 53  1  0
 30 54  1  0
 31 55  1  0
 31 56  1  0
 32 57  1  0
 32 58  1  0
M  END
>  <candidate_id>  (1) 
CAND_8b6de06a0f

>  <source_generator>  (1) 
v5_3_model_guided_macrocycle

>  <parent_mol_id>  (1) 
JAK2_c385760536

>  <canonical_smiles>  (1) 
N#CC1CN(C(=O)[C@@H]2NC(=O)c3c[nH]c4ncc(nc34)C3(CCOCCC24CC4)CC3)C1

>  <inchikey>  (1) 
WDPWVXOYSLJQGF-SFHVURJKSA-N

>  <valid_rdkit>  (1) 
True

>  <unique_flag>  (1) 
True

>  <novel_flag>  (1) 
True

>  <mw>  (1) 
434.5

>  <logp>  (1) 
1.6605

>  <tpsa>  (1) 
124.0

>  <hbd>  (1) 
2

>  <hba>  (1) 
6

>  <rotatable_bonds>  (1) 
1

>  <qed>  (1) 
0.7035

>  <sa_score>  (1) 
4.244

>  <murcko_scaffold>  (1) 
O=C1N[C@@H](C(=O)N2CCC2)C2(CCOCCC3(CC3)c3cnc4[nH]cc1c4n3)CC2

>  <max_ring_size>  (1) 
14

>  <has_macrocycle_12_20>  (1) 
True

>  <has_constrained_ring_8_11>  (1) 
False

>  <passes_basic_filters>  (1) 
True

>  <generation_notes>  (1) 
v5_3_model_guided_anchor_pair=18-23;anchor_scores=0.691,0.691;linker_length=5;target_ring=13;linker_prob=0.225;chemotype=oxa

$$$$
