CAND_fd6a72e89d
     RDKit          3D

 56 61  0  0  0  0  0  0  0  0999 V2000
    8.2679    0.2956    2.0866 N   0  0  0  0  0  0  0  0  0  0  0  0
    7.2515    0.4541    1.5499 C   0  0  0  0  0  0  0  0  0  0  0  0
    5.9755    0.6488    0.8637 C   0  0  1  0  0  0  0  0  0  0  0  0
    5.8074   -0.2731   -0.3452 C   0  0  0  0  0  0  0  0  0  0  0  0
    4.2985   -0.3015   -0.5455 C   0  0  0  0  0  0  0  0  0  0  0  0
    3.7517   -0.1216    0.7883 N   0  0  0  0  0  0  0  0  0  0  0  0
    2.4271   -0.1951    1.1710 C   0  0  0  0  0  0  0  0  0  0  0  0
    2.1010   -0.0020    2.3470 O   0  0  0  0  0  0  0  0  0  0  0  0
    1.3693   -0.5229    0.0799 C   0  0  2  0  0  0  0  0  0  0  0  0
    0.3837    0.5350    0.0416 N   0  0  0  0  0  0  0  0  0  0  0  0
    0.6372    1.7606   -0.5228 C   0  0  0  0  0  0  0  0  0  0  0  0
    1.7477    2.0972   -0.9243 O   0  0  0  0  0  0  0  0  0  0  0  0
   -0.5356    2.6128   -0.6532 C   0  0  0  0  0  0  0  0  0  0  0  0
   -0.5633    3.9225   -1.1161 C   0  0  0  0  0  0  0  0  0  0  0  0
   -1.8726    4.3471   -1.1488 N   0  0  0  0  0  0  0  0  0  0  0  0
   -2.6925    3.3323   -0.7413 C   0  0  0  0  0  0  0  0  0  0  0  0
   -4.0380    3.3475   -0.6982 N   0  0  0  0  0  0  0  0  0  0  0  0
   -4.5141    2.1385   -0.2714 C   0  0  0  0  0  0  0  0  0  0  0  0
   -3.7454    1.0242    0.1063 C   0  0  0  0  0  0  0  0  0  0  0  0
   -2.3963    1.0960    0.0569 N   0  0  0  0  0  0  0  0  0  0  0  0
   -1.8842    2.2634   -0.3956 C   0  0  0  0  0  0  0  0  0  0  0  0
   -4.3378   -0.3228    0.5537 C   0  0  0  0  0  0  0  0  0  0  0  0
   -4.8434   -0.4122    1.9935 C   0  0  0  0  0  0  0  0  0  0  0  0
   -5.8245   -0.4692    0.8675 C   0  0  0  0  0  0  0  0  0  0  0  0
   -3.6293   -1.5445   -0.0484 C   0  0  0  0  0  0  0  0  0  0  0  0
   -2.5071   -1.9630    0.7986 N   0  0  0  0  0  0  0  0  0  0  0  0
   -1.6756   -2.9818    0.1701 C   0  0  0  0  0  0  0  0  0  0  0  0
   -0.4923   -2.3199   -0.4725 C   0  0  0  0  0  0  0  0  0  0  0  0
    0.8399   -3.0271   -0.5164 C   0  0  0  0  0  0  0  0  0  0  0  0
    0.6650   -1.8272    0.3857 C   0  0  0  0  0  0  0  0  0  0  0  0
    4.7858    0.2649    1.7353 C   0  0  0  0  0  0  0  0  0  0  0  0
    5.8717    1.6917    0.5380 H   0  0  0  0  0  0  0  0  0  0  0  0
    6.1725   -1.2842   -0.1212 H   0  0  0  0  0  0  0  0  0  0  0  0
    6.3394    0.0834   -1.2327 H   0  0  0  0  0  0  0  0  0  0  0  0
    3.9549   -1.2427   -0.9838 H   0  0  0  0  0  0  0  0  0  0  0  0
    3.9642    0.5327   -1.1703 H   0  0  0  0  0  0  0  0  0  0  0  0
    1.8249   -0.5661   -0.9122 H   0  0  0  0  0  0  0  0  0  0  0  0
   -0.5604    0.3264    0.3677 H   0  0  0  0  0  0  0  0  0  0  0  0
    0.2397    4.5745   -1.4358 H   0  0  0  0  0  0  0  0  0  0  0  0
   -2.2023    5.2510   -1.4561 H   0  0  0  0  0  0  0  0  0  0  0  0
   -5.5979    2.0936   -0.2467 H   0  0  0  0  0  0  0  0  0  0  0  0
   -4.6765   -1.3200    2.5610 H   0  0  0  0  0  0  0  0  0  0  0  0
   -4.8102    0.4839    2.6048 H   0  0  0  0  0  0  0  0  0  0  0  0
   -6.5060    0.3659    0.7665 H   0  0  0  0  0  0  0  0  0  0  0  0
   -6.3071   -1.4219    0.6721 H   0  0  0  0  0  0  0  0  0  0  0  0
   -4.3357   -2.3780   -0.1473 H   0  0  0  0  0  0  0  0  0  0  0  0
   -3.2868   -1.2994   -1.0616 H   0  0  0  0  0  0  0  0  0  0  0  0
   -2.8758   -2.3263    1.6742 H   0  0  0  0  0  0  0  0  0  0  0  0
   -2.2279   -3.5861   -0.5590 H   0  0  0  0  0  0  0  0  0  0  0  0
   -1.3317   -3.6740    0.9485 H   0  0  0  0  0  0  0  0  0  0  0  0
   -0.7758   -1.7317   -1.3386 H   0  0  0  0  0  0  0  0  0  0  0  0
    1.4307   -2.9242   -1.4197 H   0  0  0  0  0  0  0  0  0  0  0  0
    0.9322   -3.9990   -0.0437 H   0  0  0  0  0  0  0  0  0  0  0  0
    0.5724   -1.9947    1.4554 H   0  0  0  0  0  0  0  0  0  0  0  0
    4.9880   -0.6017    2.3767 H   0  0  0  0  0  0  0  0  0  0  0  0
    4.4465    1.0906    2.3700 H   0  0  0  0  0  0  0  0  0  0  0  0
  1  2  3  0
  2  3  1  0
  3  4  1  0
  4  5  1  0
  5  6  1  0
  6  7  1  0
  7  8  2  0
  7  9  1  0
  9 10  1  0
 10 11  1  0
 11 12  2  0
 11 13  1  0
 13 14  2  0
 14 15  1  0
 15 16  1  0
 16 17  2  0
 17 18  1  0
 18 19  2  0
 19 20  1  0
 20 21  2  0
 19 22  1  0
 22 23  1  0
 23 24  1  0
 22 25  1  0
 25 26  1  0
 26 27  1  0
 27 28  1  0
 28 29  1  0
 29 30  1  0
  6 31  1  0
 31  3  1  0
 30  9  1  0
 21 13  1  0
 24 22  1  0
 30 28  1  0
 21 16  1  0
  3 32  1  6
  4 33  1  0
  4 34  1  0
  5 35  1  0
  5 36  1  0
  9 37  1  6
 10 38  1  0
 14 39  1  0
 15 40  1  0
 18 41  1  0
 23 42  1  0
 23 43  1  0
 24 44  1  0
 24 45  1  0
 25 46  1  0
 25 47  1  0
 26 48  1  0
 27 49  1  0
 27 50  1  0
 28 51  1  0
 29 52  1  0
 29 53  1  0
 30 54  1  0
 31 55  1  0
 31 56  1  0
M  END
>  <candidate_id>  (1) 
CAND_fd6a72e89d

>  <source_generator>  (1) 
v5_3_model_guided_macrocycle

>  <parent_mol_id>  (1) 
JAK2_9dcdbe0544

>  <canonical_smiles>  (1) 
N#C[C@H]1CCN(C(=O)[C@@H]2NC(=O)c3c[nH]c4ncc(nc34)C3(CC3)CNCC3CC32)C1

>  <inchikey>  (1) 
OCXBEBDLAHWVLE-PNDQRGPWSA-N

>  <valid_rdkit>  (1) 
True

>  <unique_flag>  (1) 
True

>  <novel_flag>  (1) 
True

>  <mw>  (1) 
419.489

>  <logp>  (1) 
0.6993

>  <tpsa>  (1) 
126.8

>  <hbd>  (1) 
3

>  <hba>  (1) 
6

>  <rotatable_bonds>  (1) 
1

>  <qed>  (1) 
0.6245

>  <sa_score>  (1) 
4.911

>  <murcko_scaffold>  (1) 
O=C1N[C@@H](C(=O)N2CCCC2)C2CC2CNCC2(CC2)c2cnc3[nH]cc1c3n2

>  <max_ring_size>  (1) 
13

>  <has_macrocycle_12_20>  (1) 
True

>  <has_constrained_ring_8_11>  (1) 
False

>  <passes_basic_filters>  (1) 
True

>  <generation_notes>  (1) 
v5_3_model_guided_anchor_pair=19-25;anchor_scores=0.691,0.079;linker_length=3;target_ring=12;linker_prob=0.278;chemotype=aza

$$$$
