CAND_d26b3db662
     RDKit          3D

 69 75  0  0  0  0  0  0  0  0999 V2000
    1.4762   -0.6997    2.4850 F   0  0  0  0  0  0  0  0  0  0  0  0
    2.3433   -0.4148    1.5024 C   0  0  0  0  0  0  0  0  0  0  0  0
    2.6696    0.9202    1.2733 C   0  0  0  0  0  0  0  0  0  0  0  0
    3.5282    1.2852    0.2232 C   0  0  0  0  0  0  0  0  0  0  0  0
    4.1004    0.2531   -0.5344 C   0  0  0  0  0  0  0  0  0  0  0  0
    3.7760   -1.0837   -0.2788 C   0  0  0  0  0  0  0  0  0  0  0  0
    4.3478   -2.0316   -1.0351 F   0  0  0  0  0  0  0  0  0  0  0  0
    2.8725   -1.4402    0.7224 C   0  0  0  0  0  0  0  0  0  0  0  0
    2.4718   -2.8703    0.9679 C   0  0  0  0  0  0  0  0  0  0  0  0
    1.7113   -3.4971   -0.1284 N   0  0  0  0  0  0  0  0  0  0  0  0
    1.4163   -4.9165    0.1744 C   0  0  0  0  0  0  0  0  0  0  0  0
   -0.0180   -5.1478    0.6802 C   0  0  0  0  0  0  0  0  0  0  0  0
   -1.0262   -4.7221   -0.2471 O   0  0  0  0  0  0  0  0  0  0  0  0
   -0.5667   -3.6928   -1.1488 C   0  0  0  0  0  0  0  0  0  0  0  0
   -1.7856   -2.9445   -1.7194 C   0  0  0  0  0  0  0  0  0  0  0  0
   -2.4150   -2.0821   -0.7614 O   0  0  0  0  0  0  0  0  0  0  0  0
   -2.2753   -0.6981   -1.1012 C   0  0  0  0  0  0  0  0  0  0  0  0
   -2.9708    0.2314   -0.0669 C   0  0  0  0  0  0  0  0  0  0  0  0
   -2.6472   -0.2012    1.3932 C   0  0  0  0  0  0  0  0  0  0  0  0
   -3.7697   -1.0247    2.0131 C   0  0  0  0  0  0  0  0  0  0  0  0
   -5.0123   -0.2578    2.1004 N   0  0  0  0  0  0  0  0  0  0  0  0
   -5.2723    0.5944    0.9385 C   0  0  0  0  0  0  0  0  0  0  0  0
   -4.5049    0.1587   -0.3036 C   0  0  0  0  0  0  0  0  0  0  0  0
   -2.4188    1.5882   -0.2964 N   0  0  0  0  0  0  0  0  0  0  0  0
   -1.1213    1.9535   -0.0631 C   0  0  0  0  0  0  0  0  0  0  0  0
   -0.9401    3.2041   -0.6146 C   0  0  0  0  0  0  0  0  0  0  0  0
   -2.2180    3.5400   -1.1016 C   0  0  0  0  0  0  0  0  0  0  0  0
   -3.1159    2.5631   -0.9198 N   0  0  0  0  0  0  0  0  0  0  0  0
    0.3527    3.8512   -0.6600 C   0  0  0  0  0  0  0  0  0  0  0  0
    0.5615    5.1736   -0.9875 C   0  0  0  0  0  0  0  0  0  0  0  0
    1.8043    5.7210   -1.0344 N   0  0  0  0  0  0  0  0  0  0  0  0
    2.8439    4.9045   -0.7465 C   0  0  0  0  0  0  0  0  0  0  0  0
    4.1406    5.3978   -0.7829 C   0  0  0  0  0  0  0  0  0  0  0  0
    5.2379    4.5838   -0.4994 C   0  0  0  0  0  0  0  0  0  0  0  0
    5.0407    3.2456   -0.1706 C   0  0  0  0  0  0  0  0  0  0  0  0
    3.7439    2.7113   -0.1181 C   0  0  0  0  0  0  0  0  0  0  0  0
    2.6449    3.5452   -0.4095 C   0  0  0  0  0  0  0  0  0  0  0  0
    1.3968    3.0422   -0.3762 N   0  0  0  0  0  0  0  0  0  0  0  0
    0.4595   -2.7685   -0.4568 C   0  0  0  0  0  0  0  0  0  0  0  0
    2.1997    1.6795    1.8948 H   0  0  0  0  0  0  0  0  0  0  0  0
    4.7716    0.4721   -1.3607 H   0  0  0  0  0  0  0  0  0  0  0  0
    3.4012   -3.4333    1.1292 H   0  0  0  0  0  0  0  0  0  0  0  0
    1.9084   -2.9498    1.9070 H   0  0  0  0  0  0  0  0  0  0  0  0
    1.5475   -5.4762   -0.7604 H   0  0  0  0  0  0  0  0  0  0  0  0
    2.1375   -5.3395    0.8838 H   0  0  0  0  0  0  0  0  0  0  0  0
   -0.1838   -4.6199    1.6265 H   0  0  0  0  0  0  0  0  0  0  0  0
   -0.1805   -6.2134    0.8712 H   0  0  0  0  0  0  0  0  0  0  0  0
   -0.0907   -4.2072   -1.9943 H   0  0  0  0  0  0  0  0  0  0  0  0
   -1.4890   -2.3857   -2.6156 H   0  0  0  0  0  0  0  0  0  0  0  0
   -2.5454   -3.6737   -2.0216 H   0  0  0  0  0  0  0  0  0  0  0  0
   -2.6990   -0.5241   -2.0995 H   0  0  0  0  0  0  0  0  0  0  0  0
   -1.2028   -0.4810   -1.1617 H   0  0  0  0  0  0  0  0  0  0  0  0
   -1.7077   -0.7661    1.4342 H   0  0  0  0  0  0  0  0  0  0  0  0
   -2.4898    0.6794    2.0325 H   0  0  0  0  0  0  0  0  0  0  0  0
   -3.4815   -1.3331    3.0239 H   0  0  0  0  0  0  0  0  0  0  0  0
   -3.9348   -1.9448    1.4406 H   0  0  0  0  0  0  0  0  0  0  0  0
   -5.7909   -0.9016    2.2426 H   0  0  0  0  0  0  0  0  0  0  0  0
   -6.3478    0.5878    0.7277 H   0  0  0  0  0  0  0  0  0  0  0  0
   -5.0158    1.6279    1.1978 H   0  0  0  0  0  0  0  0  0  0  0  0
   -4.8155    0.7620   -1.1647 H   0  0  0  0  0  0  0  0  0  0  0  0
   -4.8036   -0.8694   -0.5518 H   0  0  0  0  0  0  0  0  0  0  0  0
   -0.4219    1.2839    0.4201 H   0  0  0  0  0  0  0  0  0  0  0  0
   -2.5359    4.4405   -1.6110 H   0  0  0  0  0  0  0  0  0  0  0  0
   -0.2520    5.8497   -1.2227 H   0  0  0  0  0  0  0  0  0  0  0  0
    4.2985    6.4426   -1.0407 H   0  0  0  0  0  0  0  0  0  0  0  0
    6.2437    4.9962   -0.5351 H   0  0  0  0  0  0  0  0  0  0  0  0
    5.9030    2.6209    0.0547 H   0  0  0  0  0  0  0  0  0  0  0  0
    0.0084   -2.3670    0.4596 H   0  0  0  0  0  0  0  0  0  0  0  0
    0.7071   -1.9311   -1.1180 H   0  0  0  0  0  0  0  0  0  0  0  0
  1  2  1  0
  2  3  1  0
  3  4  2  0
  4  5  1  0
  5  6  2  0
  6  7  1  0
  6  8  1  0
  8  9  1  0
  9 10  1  0
 10 11  1  0
 11 12  1  0
 12 13  1  0
 13 14  1  0
 14 15  1  0
 15 16  1  0
 16 17  1  0
 17 18  1  0
 18 19  1  0
 19 20  1  0
 20 21  1  0
 21 22  1  0
 22 23  1  0
 18 24  1  0
 24 25  1  0
 25 26  2  0
 26 27  1  0
 27 28  2  0
 26 29  1  0
 29 30  2  0
 30 31  1  0
 31 32  2  0
 32 33  1  0
 33 34  2  0
 34 35  1  0
 35 36  2  0
 36 37  1  0
 37 38  2  0
 14 39  1  0
  8  2  2  0
 39 10  1  0
 36  4  1  0
 23 18  1  0
 28 24  1  0
 38 29  1  0
 37 32  1  0
  3 40  1  0
  5 41  1  0
  9 42  1  0
  9 43  1  0
 11 44  1  0
 11 45  1  0
 12 46  1  0
 12 47  1  0
 14 48  1  0
 15 49  1  0
 15 50  1  0
 17 51  1  0
 17 52  1  0
 19 53  1  0
 19 54  1  0
 20 55  1  0
 20 56  1  0
 21 57  1  0
 22 58  1  0
 22 59  1  0
 23 60  1  0
 23 61  1  0
 25 62  1  0
 27 63  1  0
 30 64  1  0
 33 65  1  0
 34 66  1  0
 35 67  1  0
 39 68  1  0
 39 69  1  0
M  END
>  <candidate_id>  (1) 
CAND_d26b3db662

>  <source_generator>  (1) 
v5_3_model_guided_macrocycle

>  <parent_mol_id>  (1) 
JAK2_2dc2722230

>  <canonical_smiles>  (1) 
Fc1cc2cc(F)c1CN1CCOC(COCC3(CCNCC3)n3cc(cn3)-c3cnc4cccc-2c4n3)C1

>  <inchikey>  (1) 
FWHUWWMHDRQXRG-UHFFFAOYSA-N

>  <valid_rdkit>  (1) 
True

>  <unique_flag>  (1) 
True

>  <novel_flag>  (1) 
True

>  <mw>  (1) 
532.595

>  <logp>  (1) 
3.7482

>  <tpsa>  (1) 
77.33

>  <hbd>  (1) 
1

>  <hba>  (1) 
7

>  <rotatable_bonds>  (1) 
0

>  <qed>  (1) 
0.3698

>  <sa_score>  (1) 
4.914

>  <murcko_scaffold>  (1) 
c1cc2c3nc(cnc3c1)-c1cnn(c1)C1(CCNCC1)COCC1CN(CCO1)Cc1ccc-2cc1

>  <max_ring_size>  (1) 
19

>  <has_macrocycle_12_20>  (1) 
True

>  <has_constrained_ring_8_11>  (1) 
False

>  <passes_basic_filters>  (1) 
True

>  <generation_notes>  (1) 
v5_3_model_guided_anchor_pair=16-32;anchor_scores=0.691,0.079;linker_length=3;target_ring=18;linker_prob=0.496;chemotype=oxa

$$$$
