CAND_da006e9e54
     RDKit          3D

 69 75  0  0  0  0  0  0  0  0999 V2000
    6.5506   -2.4129   -0.7311 N   0  0  0  0  0  0  0  0  0  0  0  0
    6.3668   -1.0623   -0.8361 C   0  0  0  0  0  0  0  0  0  0  0  0
    7.0784   -0.3740   -1.5532 O   0  0  0  0  0  0  0  0  0  0  0  0
    5.3072   -0.4693   -0.0115 C   0  0  0  0  0  0  0  0  0  0  0  0
    5.4637    0.8031    0.5214 C   0  0  0  0  0  0  0  0  0  0  0  0
    4.5353    1.4529    1.2703 N   0  0  0  0  0  0  0  0  0  0  0  0
    3.3517    0.8554    1.5308 C   0  0  0  0  0  0  0  0  0  0  0  0
    3.1519   -0.4812    1.1161 C   0  0  0  0  0  0  0  0  0  0  0  0
    4.0909   -1.0895    0.2801 C   0  0  0  0  0  0  0  0  0  0  0  0
    3.5115   -2.2498   -0.1896 N   0  0  0  0  0  0  0  0  0  0  0  0
    2.2617   -2.4258    0.3575 C   0  0  0  0  0  0  0  0  0  0  0  0
    1.2294   -3.3156    0.0252 C   0  0  0  0  0  0  0  0  0  0  0  0
   -0.0075   -3.1536    0.6855 C   0  0  0  0  0  0  0  0  0  0  0  0
   -0.0715   -2.3248    1.8227 C   0  0  0  0  0  0  0  0  0  0  0  0
    0.9690   -1.4531    2.1393 C   0  0  0  0  0  0  0  0  0  0  0  0
    2.1016   -1.4274    1.3124 C   0  0  0  0  0  0  0  0  0  0  0  0
   -1.2749   -3.4804   -0.0082 C   0  0  0  0  0  0  0  0  0  0  0  0
   -2.4753   -3.6436    0.6666 C   0  0  0  0  0  0  0  0  0  0  0  0
   -3.5987   -2.9820    0.1668 C   0  0  0  0  0  0  0  0  0  0  0  0
   -3.4570   -2.2006   -0.9733 C   0  0  0  0  0  0  0  0  0  0  0  0
   -2.3662   -2.3669   -1.7485 N   0  0  0  0  0  0  0  0  0  0  0  0
   -1.2781   -3.0278   -1.2805 N   0  0  0  0  0  0  0  0  0  0  0  0
   -4.2107   -1.0462   -1.1492 N   0  0  0  0  0  0  0  0  0  0  0  0
   -5.6478   -1.0012   -0.9434 C   0  0  0  0  0  0  0  0  0  0  0  0
   -5.9930    0.1221    0.0015 C   0  0  0  0  0  0  0  0  0  0  0  0
   -5.6211    1.6775   -0.7708 S   0  0  0  0  0  0  0  0  0  0  0  0
   -6.7803    2.0456   -1.5644 O   0  0  0  0  0  0  0  0  0  0  0  0
   -5.1366    2.5702    0.2651 O   0  0  0  0  0  0  0  0  0  0  0  0
   -4.2915    1.3346   -1.8999 C   0  0  0  0  0  0  0  0  0  0  0  0
   -3.4167    0.1801   -1.4385 C   0  0  0  0  0  0  0  0  0  0  0  0
   -2.4841    0.5698   -0.2318 C   0  0  0  0  0  0  0  0  0  0  0  0
   -1.2788    1.3043   -0.6603 N   0  0  0  0  0  0  0  0  0  0  0  0
   -0.4139    1.6307    0.4891 C   0  0  0  0  0  0  0  0  0  0  0  0
    0.9430    2.2463    0.1160 C   0  0  0  0  0  0  0  0  0  0  0  0
    1.7120    1.7349   -1.1004 C   0  0  0  0  0  0  0  0  0  0  0  0
    1.0018    3.0511   -1.1856 C   0  0  0  0  0  0  0  0  0  0  0  0
    1.7476    2.7260    1.3670 C   0  0  2  0  0  0  0  0  0  0  0  0
    2.6862    3.9512    1.1550 C   0  0  0  0  0  0  0  0  0  0  0  0
    3.5890    3.8066    0.1655 F   0  0  0  0  0  0  0  0  0  0  0  0
    1.9566    5.0635    0.8753 F   0  0  0  0  0  0  0  0  0  0  0  0
    3.3629    4.2279    2.3017 F   0  0  0  0  0  0  0  0  0  0  0  0
    2.3648    1.6074    2.1604 N   0  0  0  0  0  0  0  0  0  0  0  0
    7.3022   -2.8187   -1.2759 H   0  0  0  0  0  0  0  0  0  0  0  0
    6.1114   -2.9820   -0.0213 H   0  0  0  0  0  0  0  0  0  0  0  0
    6.3750    1.3704    0.3405 H   0  0  0  0  0  0  0  0  0  0  0  0
    3.8985   -2.8239   -0.9264 H   0  0  0  0  0  0  0  0  0  0  0  0
    1.3131   -3.9578   -0.8482 H   0  0  0  0  0  0  0  0  0  0  0  0
   -1.0019   -2.1959    2.3723 H   0  0  0  0  0  0  0  0  0  0  0  0
    0.8410   -0.7094    2.9214 H   0  0  0  0  0  0  0  0  0  0  0  0
   -2.4999   -4.0530    1.6717 H   0  0  0  0  0  0  0  0  0  0  0  0
   -4.4768   -2.9079    0.7977 H   0  0  0  0  0  0  0  0  0  0  0  0
   -6.1440   -0.8663   -1.9123 H   0  0  0  0  0  0  0  0  0  0  0  0
   -6.0312   -1.9439   -0.5377 H   0  0  0  0  0  0  0  0  0  0  0  0
   -7.0584    0.1240    0.2492 H   0  0  0  0  0  0  0  0  0  0  0  0
   -5.4154    0.0577    0.9292 H   0  0  0  0  0  0  0  0  0  0  0  0
   -3.7211    2.2583   -2.0368 H   0  0  0  0  0  0  0  0  0  0  0  0
   -4.7591    1.0825   -2.8589 H   0  0  0  0  0  0  0  0  0  0  0  0
   -2.7661   -0.0393   -2.2971 H   0  0  0  0  0  0  0  0  0  0  0  0
   -3.0384    1.1642    0.5000 H   0  0  0  0  0  0  0  0  0  0  0  0
   -2.1555   -0.3303    0.2969 H   0  0  0  0  0  0  0  0  0  0  0  0
   -0.7496    0.6808   -1.2741 H   0  0  0  0  0  0  0  0  0  0  0  0
   -0.9511    2.3432    1.1263 H   0  0  0  0  0  0  0  0  0  0  0  0
   -0.2286    0.7319    1.0794 H   0  0  0  0  0  0  0  0  0  0  0  0
    2.7966    1.7710   -1.1116 H   0  0  0  0  0  0  0  0  0  0  0  0
    1.3230    0.8956   -1.6636 H   0  0  0  0  0  0  0  0  0  0  0  0
    1.6126    3.9421   -1.2724 H   0  0  0  0  0  0  0  0  0  0  0  0
    0.1197    3.1123   -1.8159 H   0  0  0  0  0  0  0  0  0  0  0  0
    0.9837    3.1210    2.0510 H   0  0  0  0  0  0  0  0  0  0  0  0
    2.7903    2.0000    3.0017 H   0  0  0  0  0  0  0  0  0  0  0  0
  1  2  1  0
  2  3  2  0
  2  4  1  0
  4  5  2  0
  5  6  1  0
  6  7  2  0
  7  8  1  0
  8  9  2  0
  9 10  1  0
 10 11  1  0
 11 12  2  0
 12 13  1  0
 13 14  2  0
 14 15  1  0
 15 16  2  0
 13 17  1  0
 17 18  2  0
 18 19  1  0
 19 20  2  0
 20 21  1  0
 21 22  2  0
 20 23  1  0
 23 24  1  0
 24 25  1  0
 25 26  1  0
 26 27  2  0
 26 28  2  0
 26 29  1  0
 29 30  1  0
 30 31  1  0
 31 32  1  0
 32 33  1  0
 33 34  1  0
 34 35  1  0
 35 36  1  0
 34 37  1  0
 37 38  1  0
 38 39  1  0
 38 40  1  0
 38 41  1  0
 37 42  1  0
  9  4  1  0
 16 11  1  0
 22 17  1  0
 30 23  1  0
 36 34  1  0
 42  7  1  0
 16  8  1  0
  1 43  1  0
  1 44  1  0
  5 45  1  0
 10 46  1  0
 12 47  1  0
 14 48  1  0
 15 49  1  0
 18 50  1  0
 19 51  1  0
 24 52  1  0
 24 53  1  0
 25 54  1  0
 25 55  1  0
 29 56  1  0
 29 57  1  0
 30 58  1  0
 31 59  1  0
 31 60  1  0
 32 61  1  0
 33 62  1  0
 33 63  1  0
 35 64  1  0
 35 65  1  0
 36 66  1  0
 36 67  1  0
 37 68  1  1
 42 69  1  0
M  END
>  <candidate_id>  (1) 
CAND_da006e9e54

>  <source_generator>  (1) 
v5_3_model_guided_macrocycle

>  <parent_mol_id>  (1) 
JAK2_b8536fbab5

>  <canonical_smiles>  (1) 
NC(=O)c1cnc2c3c1[nH]c1cc(ccc13)-c1ccc(nn1)N1CCS(=O)(=O)CC1CNCC1(CC1)[C@H](C(F)(F)F)N2

>  <inchikey>  (1) 
UOQSWCBMAYJTFK-FFMAFDDDSA-N

>  <valid_rdkit>  (1) 
True

>  <unique_flag>  (1) 
True

>  <novel_flag>  (1) 
True

>  <mw>  (1) 
600.627

>  <logp>  (1) 
2.6016

>  <tpsa>  (1) 
158.99

>  <hbd>  (1) 
4

>  <hba>  (1) 
9

>  <rotatable_bonds>  (1) 
1

>  <qed>  (1) 
0.2577

>  <sa_score>  (1) 
5.417

>  <murcko_scaffold>  (1) 
O=S1(=O)CCN2c3ccc(nn3)-c3ccc4c(c3)[nH]c3ccnc(c34)NCC3(CC3)CNCC2C1

>  <max_ring_size>  (1) 
18

>  <has_macrocycle_12_20>  (1) 
True

>  <has_constrained_ring_8_11>  (1) 
False

>  <passes_basic_filters>  (1) 
True

>  <generation_notes>  (1) 
v5_3_model_guided_anchor_pair=9-27;anchor_scores=0.691,0.079;linker_length=3;target_ring=17;linker_prob=0.683;chemotype=aza

$$$$
