CAND_5580e1eed5
     RDKit          3D

 69 75  0  0  0  0  0  0  0  0999 V2000
    3.9095    0.9421    1.9319 F   0  0  0  0  0  0  0  0  0  0  0  0
    3.6871    0.1474    0.8750 C   0  0  0  0  0  0  0  0  0  0  0  0
    3.6543   -1.2306    1.0807 C   0  0  0  0  0  0  0  0  0  0  0  0
    3.3606   -2.0958    0.0187 C   0  0  0  0  0  0  0  0  0  0  0  0
    3.2011   -1.5451   -1.2616 C   0  0  0  0  0  0  0  0  0  0  0  0
    3.2398   -0.1638   -1.4482 C   0  0  0  0  0  0  0  0  0  0  0  0
    3.0522    0.3175   -2.6853 F   0  0  0  0  0  0  0  0  0  0  0  0
    3.4281    0.7083   -0.3768 C   0  0  0  0  0  0  0  0  0  0  0  0
    3.3386    2.1993   -0.5449 C   0  0  0  0  0  0  0  0  0  0  0  0
    2.0421    2.7128   -1.0575 N   0  0  0  0  0  0  0  0  0  0  0  0
    2.2008    4.1648   -1.3544 C   0  0  0  0  0  0  0  0  0  0  0  0
    1.7404    5.1229   -0.2310 C   0  0  0  0  0  0  0  0  0  0  0  0
    1.9054    4.5412    1.0640 O   0  0  0  0  0  0  0  0  0  0  0  0
    1.1256    3.3379    1.2168 C   0  0  0  0  0  0  0  0  0  0  0  0
    0.8844    2.5911   -0.1194 C   0  0  0  0  0  0  0  0  0  0  0  0
    0.3105    1.1743    0.1084 C   0  0  0  0  0  0  0  0  0  0  0  0
   -0.8765    1.1570    0.9132 O   0  0  0  0  0  0  0  0  0  0  0  0
   -2.0419    1.6885    0.2706 C   0  0  0  0  0  0  0  0  0  0  0  0
   -3.2672    1.0149    0.9240 C   0  0  0  0  0  0  0  0  0  0  0  0
   -4.3119    2.0514    1.3602 C   0  0  0  0  0  0  0  0  0  0  0  0
   -4.9828    2.6778    0.2239 N   0  0  0  0  0  0  0  0  0  0  0  0
   -5.7011    1.6897   -0.5783 C   0  0  0  0  0  0  0  0  0  0  0  0
   -4.7489    0.6355   -1.1257 C   0  0  0  0  0  0  0  0  0  0  0  0
   -3.9456   -0.0338    0.0055 C   0  0  0  0  0  0  0  0  0  0  0  0
   -3.0100   -1.0500   -0.4725 N   0  0  0  0  0  0  0  0  0  0  0  0
   -2.4318   -2.0422    0.2772 C   0  0  0  0  0  0  0  0  0  0  0  0
   -1.5025   -2.6429   -0.5451 C   0  0  0  0  0  0  0  0  0  0  0  0
   -1.6233   -1.9659   -1.7736 C   0  0  0  0  0  0  0  0  0  0  0  0
   -2.5871   -1.0439   -1.7531 N   0  0  0  0  0  0  0  0  0  0  0  0
   -0.5085   -3.5953   -0.1316 C   0  0  0  0  0  0  0  0  0  0  0  0
   -0.7935   -4.8992    0.2156 C   0  0  0  0  0  0  0  0  0  0  0  0
    0.1774   -5.7836    0.5573 N   0  0  0  0  0  0  0  0  0  0  0  0
    1.4470   -5.3197    0.5579 C   0  0  0  0  0  0  0  0  0  0  0  0
    2.4885   -6.1695    0.9059 C   0  0  0  0  0  0  0  0  0  0  0  0
    3.8113   -5.7262    0.9429 C   0  0  0  0  0  0  0  0  0  0  0  0
    4.1040   -4.4014    0.6368 C   0  0  0  0  0  0  0  0  0  0  0  0
    3.0758   -3.5186    0.2763 C   0  0  0  0  0  0  0  0  0  0  0  0
    1.7453   -3.9770    0.2203 C   0  0  0  0  0  0  0  0  0  0  0  0
    0.7558   -3.1314   -0.1370 N   0  0  0  0  0  0  0  0  0  0  0  0
    3.7830   -1.6092    2.0912 H   0  0  0  0  0  0  0  0  0  0  0  0
    2.9730   -2.1786   -2.1149 H   0  0  0  0  0  0  0  0  0  0  0  0
    3.6289    2.7081    0.3818 H   0  0  0  0  0  0  0  0  0  0  0  0
    4.1264    2.4500   -1.2697 H   0  0  0  0  0  0  0  0  0  0  0  0
    3.2379    4.4004   -1.6255 H   0  0  0  0  0  0  0  0  0  0  0  0
    1.6193    4.3966   -2.2558 H   0  0  0  0  0  0  0  0  0  0  0  0
    0.6877    5.4031   -0.3597 H   0  0  0  0  0  0  0  0  0  0  0  0
    2.3297    6.0448   -0.2656 H   0  0  0  0  0  0  0  0  0  0  0  0
    0.1700    3.6207    1.6722 H   0  0  0  0  0  0  0  0  0  0  0  0
    1.6585    2.7040    1.9335 H   0  0  0  0  0  0  0  0  0  0  0  0
    0.0646    3.1269   -0.6201 H   0  0  0  0  0  0  0  0  0  0  0  0
    0.1113    0.6723   -0.8455 H   0  0  0  0  0  0  0  0  0  0  0  0
    1.0199    0.5572    0.6583 H   0  0  0  0  0  0  0  0  0  0  0  0
   -2.0017    1.5253   -0.8105 H   0  0  0  0  0  0  0  0  0  0  0  0
   -2.0401    2.7690    0.4484 H   0  0  0  0  0  0  0  0  0  0  0  0
   -2.9326    0.4967    1.8340 H   0  0  0  0  0  0  0  0  0  0  0  0
   -3.8303    2.8306    1.9624 H   0  0  0  0  0  0  0  0  0  0  0  0
   -5.0565    1.5773    2.0128 H   0  0  0  0  0  0  0  0  0  0  0  0
   -5.6439    3.3780    0.5638 H   0  0  0  0  0  0  0  0  0  0  0  0
   -6.4927    1.2190    0.0173 H   0  0  0  0  0  0  0  0  0  0  0  0
   -6.1918    2.2001   -1.4143 H   0  0  0  0  0  0  0  0  0  0  0  0
   -4.0782    1.1079   -1.8549 H   0  0  0  0  0  0  0  0  0  0  0  0
   -5.3225   -0.1211   -1.6759 H   0  0  0  0  0  0  0  0  0  0  0  0
   -4.6666   -0.5953    0.6183 H   0  0  0  0  0  0  0  0  0  0  0  0
   -2.6621   -2.1661    1.3261 H   0  0  0  0  0  0  0  0  0  0  0  0
   -1.0410   -2.1001   -2.6762 H   0  0  0  0  0  0  0  0  0  0  0  0
   -1.8061   -5.2857    0.2166 H   0  0  0  0  0  0  0  0  0  0  0  0
    2.2610   -7.2026    1.1594 H   0  0  0  0  0  0  0  0  0  0  0  0
    4.6073   -6.4128    1.2217 H   0  0  0  0  0  0  0  0  0  0  0  0
    5.1345   -4.0545    0.6836 H   0  0  0  0  0  0  0  0  0  0  0  0
  1  2  1  0
  2  3  1  0
  3  4  2  0
  4  5  1  0
  5  6  2  0
  6  7  1  0
  6  8  1  0
  8  9  1  0
  9 10  1  0
 10 11  1  0
 11 12  1  0
 12 13  1  0
 13 14  1  0
 14 15  1  0
 15 16  1  0
 16 17  1  0
 17 18  1  0
 18 19  1  0
 19 20  1  0
 20 21  1  0
 21 22  1  0
 22 23  1  0
 23 24  1  0
 24 25  1  0
 25 26  1  0
 26 27  2  0
 27 28  1  0
 28 29  2  0
 27 30  1  0
 30 31  2  0
 31 32  1  0
 32 33  2  0
 33 34  1  0
 34 35  2  0
 35 36  1  0
 36 37  2  0
 37 38  1  0
 38 39  2  0
  8  2  2  0
 15 10  1  0
 24 19  1  0
 29 25  1  0
 39 30  1  0
 37  4  1  0
 38 33  1  0
  3 40  1  0
  5 41  1  0
  9 42  1  0
  9 43  1  0
 11 44  1  0
 11 45  1  0
 12 46  1  0
 12 47  1  0
 14 48  1  0
 14 49  1  0
 15 50  1  0
 16 51  1  0
 16 52  1  0
 18 53  1  0
 18 54  1  0
 19 55  1  0
 20 56  1  0
 20 57  1  0
 21 58  1  0
 22 59  1  0
 22 60  1  0
 23 61  1  0
 23 62  1  0
 24 63  1  0
 26 64  1  0
 28 65  1  0
 31 66  1  0
 34 67  1  0
 35 68  1  0
 36 69  1  0
M  END
>  <candidate_id>  (1) 
CAND_5580e1eed5

>  <source_generator>  (1) 
v5_3_model_guided_macrocycle

>  <parent_mol_id>  (1) 
JAK2_2dc2722230

>  <canonical_smiles>  (1) 
Fc1cc2cc(F)c1CN1CCOCC1COCC1CNCCC1n1cc(cn1)-c1cnc3cccc-2c3n1

>  <inchikey>  (1) 
UUPFRPQGCFAVPS-UHFFFAOYSA-N

>  <valid_rdkit>  (1) 
True

>  <unique_flag>  (1) 
True

>  <novel_flag>  (1) 
True

>  <mw>  (1) 
532.595

>  <logp>  (1) 
3.8201

>  <tpsa>  (1) 
77.33

>  <hbd>  (1) 
1

>  <hba>  (1) 
7

>  <rotatable_bonds>  (1) 
0

>  <qed>  (1) 
0.3691

>  <sa_score>  (1) 
5.164

>  <murcko_scaffold>  (1) 
c1cc2c3nc(cnc3c1)-c1cnn(c1)C1CCNCC1COCC1COCCN1Cc1ccc-2cc1

>  <max_ring_size>  (1) 
19

>  <has_macrocycle_12_20>  (1) 
True

>  <has_constrained_ring_8_11>  (1) 
False

>  <passes_basic_filters>  (1) 
True

>  <generation_notes>  (1) 
v5_3_model_guided_anchor_pair=17-31;anchor_scores=0.079,0.079;linker_length=3;target_ring=18;linker_prob=0.496;chemotype=oxa

$$$$
