CAND_893be87c2e
     RDKit          3D

 69 75  0  0  0  0  0  0  0  0999 V2000
    7.5732    1.1976    1.0047 N   0  0  0  0  0  0  0  0  0  0  0  0
    6.3830    1.6258    0.4895 C   0  0  0  0  0  0  0  0  0  0  0  0
    6.1028    2.8205    0.4882 O   0  0  0  0  0  0  0  0  0  0  0  0
    5.4334    0.6258   -0.0420 C   0  0  0  0  0  0  0  0  0  0  0  0
    5.7163   -0.7179   -0.2363 C   0  0  0  0  0  0  0  0  0  0  0  0
    4.8354   -1.6495   -0.6846 N   0  0  0  0  0  0  0  0  0  0  0  0
    3.5635   -1.2870   -0.9740 C   0  0  0  0  0  0  0  0  0  0  0  0
    3.2129    0.0794   -0.9198 C   0  0  0  0  0  0  0  0  0  0  0  0
    4.1388    0.9956   -0.4188 C   0  0  0  0  0  0  0  0  0  0  0  0
    3.5135    2.2237   -0.3682 N   0  0  0  0  0  0  0  0  0  0  0  0
    2.2222    2.1353   -0.8259 C   0  0  0  0  0  0  0  0  0  0  0  0
    1.1919    3.0886   -0.8372 C   0  0  0  0  0  0  0  0  0  0  0  0
   -0.0731    2.6937   -1.3125 C   0  0  0  0  0  0  0  0  0  0  0  0
   -0.2109    1.4189   -1.8957 C   0  0  0  0  0  0  0  0  0  0  0  0
    0.8290    0.4880   -1.8835 C   0  0  0  0  0  0  0  0  0  0  0  0
    2.0442    0.8269   -1.2694 C   0  0  0  0  0  0  0  0  0  0  0  0
   -1.2920    3.4424   -0.9510 C   0  0  0  0  0  0  0  0  0  0  0  0
   -2.4501    3.4061   -1.7096 C   0  0  0  0  0  0  0  0  0  0  0  0
   -3.6654    3.2726   -1.0378 C   0  0  0  0  0  0  0  0  0  0  0  0
   -3.6355    3.1355    0.3432 C   0  0  0  0  0  0  0  0  0  0  0  0
   -2.5551    3.6064    1.0007 N   0  0  0  0  0  0  0  0  0  0  0  0
   -1.3659    3.7350    0.3625 N   0  0  0  0  0  0  0  0  0  0  0  0
   -4.4645    2.2170    1.0216 N   0  0  0  0  0  0  0  0  0  0  0  0
   -5.6515    1.6407    0.3659 C   0  0  0  0  0  0  0  0  0  0  0  0
   -6.0824    0.3307    1.0053 C   0  0  0  0  0  0  0  0  0  0  0  0
   -4.7647   -0.8773    0.8573 S   0  0  0  0  0  0  0  0  0  0  0  0
   -4.8540   -1.7484    2.0152 O   0  0  0  0  0  0  0  0  0  0  0  0
   -4.8387   -1.4327   -0.4821 O   0  0  0  0  0  0  0  0  0  0  0  0
   -3.2702    0.0977    0.9856 C   0  0  0  0  0  0  0  0  0  0  0  0
   -2.0558   -0.6756    1.5010 C   0  0  0  0  0  0  0  0  0  0  0  0
   -1.4891   -1.5363    0.4472 N   0  0  0  0  0  0  0  0  0  0  0  0
   -0.1018   -1.9214    0.7316 C   0  0  0  0  0  0  0  0  0  0  0  0
    0.4925   -2.9075   -0.2825 C   0  0  0  0  0  0  0  0  0  0  0  0
   -0.1861   -3.1402   -1.6338 C   0  0  0  0  0  0  0  0  0  0  0  0
   -0.3061   -4.1826   -0.5671 C   0  0  0  0  0  0  0  0  0  0  0  0
    2.0413   -3.0762   -0.2146 C   0  0  2  0  0  0  0  0  0  0  0  0
    2.6323   -2.9724    1.2243 C   0  0  0  0  0  0  0  0  0  0  0  0
    2.6171   -1.7183    1.7256 F   0  0  0  0  0  0  0  0  0  0  0  0
    1.9146   -3.7473    2.0818 F   0  0  0  0  0  0  0  0  0  0  0  0
    3.9035   -3.4345    1.2869 F   0  0  0  0  0  0  0  0  0  0  0  0
    2.6966   -2.3134   -1.3227 N   0  0  0  0  0  0  0  0  0  0  0  0
   -3.6460    1.2966    1.8598 C   0  0  0  0  0  0  0  0  0  0  0  0
    7.8630    0.2367    1.1021 H   0  0  0  0  0  0  0  0  0  0  0  0
    8.1952    1.9108    1.3660 H   0  0  0  0  0  0  0  0  0  0  0  0
    6.6986   -1.1290   -0.0287 H   0  0  0  0  0  0  0  0  0  0  0  0
    3.9584    3.0606   -0.0073 H   0  0  0  0  0  0  0  0  0  0  0  0
    1.3332    4.0620   -0.3742 H   0  0  0  0  0  0  0  0  0  0  0  0
   -1.1763    1.0717   -2.2601 H   0  0  0  0  0  0  0  0  0  0  0  0
    0.6657   -0.5145   -2.2662 H   0  0  0  0  0  0  0  0  0  0  0  0
   -2.4104    3.2505   -2.7831 H   0  0  0  0  0  0  0  0  0  0  0  0
   -4.5465    3.0500   -1.6257 H   0  0  0  0  0  0  0  0  0  0  0  0
   -6.4703    2.3668    0.4150 H   0  0  0  0  0  0  0  0  0  0  0  0
   -5.4611    1.4244   -0.6907 H   0  0  0  0  0  0  0  0  0  0  0  0
   -6.9629   -0.0841    0.5054 H   0  0  0  0  0  0  0  0  0  0  0  0
   -6.3148    0.4556    2.0674 H   0  0  0  0  0  0  0  0  0  0  0  0
   -3.0471    0.4385   -0.0341 H   0  0  0  0  0  0  0  0  0  0  0  0
   -2.2969   -1.2727    2.3871 H   0  0  0  0  0  0  0  0  0  0  0  0
   -1.2922    0.0546    1.7972 H   0  0  0  0  0  0  0  0  0  0  0  0
   -2.0661   -2.3732    0.3546 H   0  0  0  0  0  0  0  0  0  0  0  0
   -0.0551   -2.3769    1.7272 H   0  0  0  0  0  0  0  0  0  0  0  0
    0.5139   -1.0166    0.7400 H   0  0  0  0  0  0  0  0  0  0  0  0
    0.4338   -3.3632   -2.4958 H   0  0  0  0  0  0  0  0  0  0  0  0
   -1.0669   -2.5626   -1.8920 H   0  0  0  0  0  0  0  0  0  0  0  0
    0.2165   -5.1206   -0.7245 H   0  0  0  0  0  0  0  0  0  0  0  0
   -1.2737   -4.3250   -0.0989 H   0  0  0  0  0  0  0  0  0  0  0  0
    2.2310   -4.1254   -0.4821 H   0  0  0  0  0  0  0  0  0  0  0  0
    3.2126   -2.9470   -1.9289 H   0  0  0  0  0  0  0  0  0  0  0  0
   -4.2261    0.9953    2.7413 H   0  0  0  0  0  0  0  0  0  0  0  0
   -2.7546    1.7708    2.2847 H   0  0  0  0  0  0  0  0  0  0  0  0
  1  2  1  0
  2  3  2  0
  2  4  1  0
  4  5  2  0
  5  6  1  0
  6  7  2  0
  7  8  1  0
  8  9  2  0
  9 10  1  0
 10 11  1  0
 11 12  2  0
 12 13  1  0
 13 14  2  0
 14 15  1  0
 15 16  2  0
 13 17  1  0
 17 18  2  0
 18 19  1  0
 19 20  2  0
 20 21  1  0
 21 22  2  0
 20 23  1  0
 23 24  1  0
 24 25  1  0
 25 26  1  0
 26 27  2  0
 26 28  2  0
 26 29  1  0
 29 30  1  0
 30 31  1  0
 31 32  1  0
 32 33  1  0
 33 34  1  0
 34 35  1  0
 33 36  1  0
 36 37  1  0
 37 38  1  0
 37 39  1  0
 37 40  1  0
 36 41  1  0
 29 42  1  0
  9  4  1  0
 16 11  1  0
 22 17  1  0
 42 23  1  0
 41  7  1  0
 16  8  1  0
 35 33  1  0
  1 43  1  0
  1 44  1  0
  5 45  1  0
 10 46  1  0
 12 47  1  0
 14 48  1  0
 15 49  1  0
 18 50  1  0
 19 51  1  0
 24 52  1  0
 24 53  1  0
 25 54  1  0
 25 55  1  0
 29 56  1  0
 30 57  1  0
 30 58  1  0
 31 59  1  0
 32 60  1  0
 32 61  1  0
 34 62  1  0
 34 63  1  0
 35 64  1  0
 35 65  1  0
 36 66  1  6
 41 67  1  0
 42 68  1  0
 42 69  1  0
M  END
>  <candidate_id>  (1) 
CAND_893be87c2e

>  <source_generator>  (1) 
v5_3_model_guided_macrocycle

>  <parent_mol_id>  (1) 
JAK2_b8536fbab5

>  <canonical_smiles>  (1) 
NC(=O)c1cnc2c3c1[nH]c1cc(ccc13)-c1ccc(nn1)N1CCS(=O)(=O)C(CNCC3(CC3)[C@H](C(F)(F)F)N2)C1

>  <inchikey>  (1) 
IAEQNVPUVYIAKQ-FFMAFDDDSA-N

>  <valid_rdkit>  (1) 
True

>  <unique_flag>  (1) 
True

>  <novel_flag>  (1) 
True

>  <mw>  (1) 
600.627

>  <logp>  (1) 
2.6016

>  <tpsa>  (1) 
158.99

>  <hbd>  (1) 
4

>  <hba>  (1) 
9

>  <rotatable_bonds>  (1) 
1

>  <qed>  (1) 
0.2577

>  <sa_score>  (1) 
5.417

>  <murcko_scaffold>  (1) 
O=S1(=O)CCN2CC1CNCC1(CC1)CNc1nccc3[nH]c4cc(ccc4c13)-c1ccc2nn1

>  <max_ring_size>  (1) 
19

>  <has_macrocycle_12_20>  (1) 
True

>  <has_constrained_ring_8_11>  (1) 
False

>  <passes_basic_filters>  (1) 
True

>  <generation_notes>  (1) 
v5_3_model_guided_anchor_pair=9-28;anchor_scores=0.691,0.079;linker_length=3;target_ring=18;linker_prob=0.649;chemotype=aza

$$$$
