CAND_ff4ec3842f
     RDKit          3D

 59 63  0  0  0  0  0  0  0  0999 V2000
   -4.3027   -1.4561    1.2580 C   0  0  0  0  0  0  0  0  0  0  0  0
   -3.6209   -0.0843    1.0728 C   0  0  0  0  0  0  0  0  0  0  0  0
   -3.8946    0.3658   -0.3684 C   0  0  0  0  0  0  0  0  0  0  0  0
   -4.3494    0.8946    2.0257 C   0  0  0  0  0  0  0  0  0  0  0  0
   -2.0872   -0.1370    1.4385 C   0  0  1  0  0  0  0  0  0  0  0  0
   -1.2446   -1.0342    0.6401 N   0  0  0  0  0  0  0  0  0  0  0  0
   -1.1811   -2.3981    0.8322 C   0  0  0  0  0  0  0  0  0  0  0  0
   -1.9077   -3.0183    1.5980 O   0  0  0  0  0  0  0  0  0  0  0  0
   -0.1759   -3.0767    0.0299 C   0  0  0  0  0  0  0  0  0  0  0  0
   -0.2973   -4.3702   -0.4643 C   0  0  0  0  0  0  0  0  0  0  0  0
    0.8362   -4.6757   -1.1755 N   0  0  0  0  0  0  0  0  0  0  0  0
    1.7034   -3.6224   -1.1218 C   0  0  0  0  0  0  0  0  0  0  0  0
    2.9234   -3.5758   -1.6881 N   0  0  0  0  0  0  0  0  0  0  0  0
    3.5456   -2.4055   -1.3845 C   0  0  0  0  0  0  0  0  0  0  0  0
    3.0140   -1.3711   -0.5987 C   0  0  0  0  0  0  0  0  0  0  0  0
    1.7503   -1.4528   -0.0983 N   0  0  0  0  0  0  0  0  0  0  0  0
    1.1085   -2.6196   -0.3662 C   0  0  0  0  0  0  0  0  0  0  0  0
    3.8246   -0.1091   -0.2830 C   0  0  0  0  0  0  0  0  0  0  0  0
    3.4031    1.1283   -1.0627 C   0  0  0  0  0  0  0  0  0  0  0  0
    2.1360    1.7611   -0.4739 C   0  0  0  0  0  0  0  0  0  0  0  0
    1.4438    2.7056   -1.4573 C   0  0  0  0  0  0  0  0  0  0  0  0
   -0.0425    2.9635   -1.1305 C   0  0  0  0  0  0  0  0  0  0  0  0
   -0.5774    3.9487   -2.0606 C   0  0  0  0  0  0  0  0  0  0  0  0
   -0.9999    4.7270   -2.8100 N   0  0  0  0  0  0  0  0  0  0  0  0
   -0.4260    3.2636    0.3387 C   0  0  0  0  0  0  0  0  0  0  0  0
   -0.9866    1.9166    0.4027 N   0  0  0  0  0  0  0  0  0  0  0  0
   -0.9385    1.6952   -1.0276 C   0  0  0  0  0  0  0  0  0  0  0  0
   -1.4324    1.2727    1.5259 C   0  0  0  0  0  0  0  0  0  0  0  0
   -1.3951    1.8638    2.6120 O   0  0  0  0  0  0  0  0  0  0  0  0
    4.2741    0.0918    1.1579 C   0  0  0  0  0  0  0  0  0  0  0  0
    5.2897   -0.2417    0.1110 C   0  0  0  0  0  0  0  0  0  0  0  0
   -3.9703   -2.1769    0.5048 H   0  0  0  0  0  0  0  0  0  0  0  0
   -4.1124   -1.8643    2.2562 H   0  0  0  0  0  0  0  0  0  0  0  0
   -5.3913   -1.3764    1.1478 H   0  0  0  0  0  0  0  0  0  0  0  0
   -3.2899   -0.1946   -1.0883 H   0  0  0  0  0  0  0  0  0  0  0  0
   -4.9464    0.2107   -0.6381 H   0  0  0  0  0  0  0  0  0  0  0  0
   -3.7067    1.4352   -0.4924 H   0  0  0  0  0  0  0  0  0  0  0  0
   -5.4320    0.8859    1.8524 H   0  0  0  0  0  0  0  0  0  0  0  0
   -4.1798    0.6235    3.0738 H   0  0  0  0  0  0  0  0  0  0  0  0
   -4.0153    1.9277    1.8834 H   0  0  0  0  0  0  0  0  0  0  0  0
   -2.0201   -0.5330    2.4630 H   0  0  0  0  0  0  0  0  0  0  0  0
   -0.4703   -0.6343    0.1249 H   0  0  0  0  0  0  0  0  0  0  0  0
   -1.1030   -5.0875   -0.3676 H   0  0  0  0  0  0  0  0  0  0  0  0
    1.0324   -5.5462   -1.6493 H   0  0  0  0  0  0  0  0  0  0  0  0
    4.5449   -2.3130   -1.8014 H   0  0  0  0  0  0  0  0  0  0  0  0
    4.2042    1.8778   -1.0711 H   0  0  0  0  0  0  0  0  0  0  0  0
    3.2402    0.8396   -2.1086 H   0  0  0  0  0  0  0  0  0  0  0  0
    1.4488    0.9758   -0.1616 H   0  0  0  0  0  0  0  0  0  0  0  0
    2.3932    2.3061    0.4424 H   0  0  0  0  0  0  0  0  0  0  0  0
    1.9980    3.6535   -1.4718 H   0  0  0  0  0  0  0  0  0  0  0  0
    1.5077    2.2883   -2.4711 H   0  0  0  0  0  0  0  0  0  0  0  0
    0.4027    3.4299    1.0321 H   0  0  0  0  0  0  0  0  0  0  0  0
   -1.1913    4.0309    0.5004 H   0  0  0  0  0  0  0  0  0  0  0  0
   -1.9063    1.7875   -1.5241 H   0  0  0  0  0  0  0  0  0  0  0  0
   -0.4682    0.7650   -1.3512 H   0  0  0  0  0  0  0  0  0  0  0  0
    4.0203   -0.6707    1.8877 H   0  0  0  0  0  0  0  0  0  0  0  0
    4.2847    1.0942    1.5714 H   0  0  0  0  0  0  0  0  0  0  0  0
    5.7495   -1.2225    0.1688 H   0  0  0  0  0  0  0  0  0  0  0  0
    5.9837    0.5381   -0.1846 H   0  0  0  0  0  0  0  0  0  0  0  0
  1  2  1  0
  2  3  1  0
  2  4  1  0
  2  5  1  0
  5  6  1  0
  6  7  1  0
  7  8  2  0
  7  9  1  0
  9 10  2  0
 10 11  1  0
 11 12  1  0
 12 13  2  0
 13 14  1  0
 14 15  2  0
 15 16  1  0
 16 17  2  0
 15 18  1  0
 18 19  1  0
 19 20  1  0
 20 21  1  0
 21 22  1  0
 22 23  1  0
 23 24  3  0
 22 25  1  0
 25 26  1  0
 26 27  1  0
 26 28  1  0
 28 29  2  0
 18 30  1  0
 30 31  1  0
 28  5  1  0
 17  9  1  0
 31 18  1  0
 17 12  1  0
 27 22  1  0
  1 32  1  0
  1 33  1  0
  1 34  1  0
  3 35  1  0
  3 36  1  0
  3 37  1  0
  4 38  1  0
  4 39  1  0
  4 40  1  0
  5 41  1  1
  6 42  1  0
 10 43  1  0
 11 44  1  0
 14 45  1  0
 19 46  1  0
 19 47  1  0
 20 48  1  0
 20 49  1  0
 21 50  1  0
 21 51  1  0
 25 52  1  0
 25 53  1  0
 27 54  1  0
 27 55  1  0
 30 56  1  0
 30 57  1  0
 31 58  1  0
 31 59  1  0
M  END
>  <candidate_id>  (1) 
CAND_ff4ec3842f

>  <source_generator>  (1) 
v5_3_model_guided_macrocycle

>  <parent_mol_id>  (1) 
JAK2_1a53985c87

>  <canonical_smiles>  (1) 
CC(C)(C)[C@H]1NC(=O)c2c[nH]c3ncc(nc23)C2(CCCC3(C#N)CN(C3)C1=O)CC2

>  <inchikey>  (1) 
UKHZSAMVHXXKRG-KRWDZBQOSA-N

>  <valid_rdkit>  (1) 
True

>  <unique_flag>  (1) 
True

>  <novel_flag>  (1) 
True

>  <mw>  (1) 
420.517

>  <logp>  (1) 
2.6701

>  <tpsa>  (1) 
114.77

>  <hbd>  (1) 
2

>  <hba>  (1) 
5

>  <rotatable_bonds>  (1) 
0

>  <qed>  (1) 
0.6799

>  <sa_score>  (1) 
4.042

>  <murcko_scaffold>  (1) 
O=C1NCC(=O)N2CC(CCCC3(CC3)c3cnc4[nH]cc1c4n3)C2

>  <max_ring_size>  (1) 
15

>  <has_macrocycle_12_20>  (1) 
True

>  <has_constrained_ring_8_11>  (1) 
False

>  <passes_basic_filters>  (1) 
True

>  <generation_notes>  (1) 
v5_3_model_guided_anchor_pair=15-24;anchor_scores=0.691,0.691;linker_length=3;target_ring=14;linker_prob=0.291;chemotype=oxa_aza

$$$$
