CAND_4e8257bdee
     RDKit          3D

 67 71  0  0  0  0  0  0  0  0999 V2000
    5.6216   -0.5454   -1.7983 C   0  0  0  0  0  0  0  0  0  0  0  0
    4.5802   -1.0063   -0.7559 C   0  0  0  0  0  0  0  0  0  0  0  0
    4.8661   -0.2745    0.5691 C   0  0  0  0  0  0  0  0  0  0  0  0
    4.8019   -2.5216   -0.5374 C   0  0  0  0  0  0  0  0  0  0  0  0
    3.1178   -0.7517   -1.2706 C   0  0  1  0  0  0  0  0  0  0  0  0
    2.1335   -1.3735   -0.3856 N   0  0  0  0  0  0  0  0  0  0  0  0
    0.8956   -1.7739   -0.8412 C   0  0  0  0  0  0  0  0  0  0  0  0
    0.5087   -1.5565   -1.9817 O   0  0  0  0  0  0  0  0  0  0  0  0
    0.0870   -2.4293    0.1744 C   0  0  0  0  0  0  0  0  0  0  0  0
    0.5494   -3.2526    1.1982 C   0  0  0  0  0  0  0  0  0  0  0  0
   -0.5272   -3.6554    1.9503 N   0  0  0  0  0  0  0  0  0  0  0  0
   -1.6641   -3.0820    1.4613 C   0  0  0  0  0  0  0  0  0  0  0  0
   -2.8910   -3.2015    1.9993 N   0  0  0  0  0  0  0  0  0  0  0  0
   -3.7938   -2.4726    1.2889 C   0  0  0  0  0  0  0  0  0  0  0  0
   -3.5215   -1.7157    0.1391 C   0  0  0  0  0  0  0  0  0  0  0  0
   -2.2601   -1.6493   -0.3611 N   0  0  0  0  0  0  0  0  0  0  0  0
   -1.3242   -2.3431    0.3343 C   0  0  0  0  0  0  0  0  0  0  0  0
   -4.5920   -0.8684   -0.5572 C   0  0  0  0  0  0  0  0  0  0  0  0
   -4.2238    0.5993   -0.7628 C   0  0  0  0  0  0  0  0  0  0  0  0
   -3.6911    1.2833    0.5007 C   0  0  0  0  0  0  0  0  0  0  0  0
   -3.3198    2.7407    0.2126 C   0  0  0  0  0  0  0  0  0  0  0  0
   -2.5910    3.3889    1.3058 N   0  0  0  0  0  0  0  0  0  0  0  0
   -1.2128    2.9309    1.4986 C   0  0  0  0  0  0  0  0  0  0  0  0
   -0.2915    3.2727    0.3192 C   0  0  0  0  0  0  0  0  0  0  0  0
    1.1705    2.8589    0.5697 C   0  0  0  0  0  0  0  0  0  0  0  0
    1.7607    3.5435    1.7060 C   0  0  0  0  0  0  0  0  0  0  0  0
    2.2305    4.0663    2.6290 N   0  0  0  0  0  0  0  0  0  0  0  0
    2.0213    2.9749   -0.7155 C   0  0  0  0  0  0  0  0  0  0  0  0
    2.1897    1.5325   -0.6740 N   0  0  0  0  0  0  0  0  0  0  0  0
    1.4527    1.3337    0.5496 C   0  0  0  0  0  0  0  0  0  0  0  0
    2.8504    0.7512   -1.5796 C   0  0  0  0  0  0  0  0  0  0  0  0
    3.3581    1.2795   -2.5756 O   0  0  0  0  0  0  0  0  0  0  0  0
   -6.0687   -1.2248   -0.4714 C   0  0  0  0  0  0  0  0  0  0  0  0
   -5.3116   -1.5297   -1.7259 C   0  0  0  0  0  0  0  0  0  0  0  0
    5.6470    0.5442   -1.8977 H   0  0  0  0  0  0  0  0  0  0  0  0
    6.6329   -0.8567   -1.5107 H   0  0  0  0  0  0  0  0  0  0  0  0
    5.4120   -0.9753   -2.7840 H   0  0  0  0  0  0  0  0  0  0  0  0
    5.8863   -0.4780    0.9154 H   0  0  0  0  0  0  0  0  0  0  0  0
    4.1859   -0.5918    1.3658 H   0  0  0  0  0  0  0  0  0  0  0  0
    4.7737    0.8109    0.4587 H   0  0  0  0  0  0  0  0  0  0  0  0
    4.5831   -3.0861   -1.4508 H   0  0  0  0  0  0  0  0  0  0  0  0
    5.8404   -2.7335   -0.2574 H   0  0  0  0  0  0  0  0  0  0  0  0
    4.1691   -2.9175    0.2639 H   0  0  0  0  0  0  0  0  0  0  0  0
    3.0100   -1.2575   -2.2411 H   0  0  0  0  0  0  0  0  0  0  0  0
    2.3576   -1.5050    0.5892 H   0  0  0  0  0  0  0  0  0  0  0  0
    1.5439   -3.6035    1.4417 H   0  0  0  0  0  0  0  0  0  0  0  0
   -0.5076   -4.2604    2.7595 H   0  0  0  0  0  0  0  0  0  0  0  0
   -4.7981   -2.5020    1.7004 H   0  0  0  0  0  0  0  0  0  0  0  0
   -3.4634    0.6554   -1.5531 H   0  0  0  0  0  0  0  0  0  0  0  0
   -5.0935    1.1579   -1.1323 H   0  0  0  0  0  0  0  0  0  0  0  0
   -2.8135    0.7413    0.8632 H   0  0  0  0  0  0  0  0  0  0  0  0
   -4.4422    1.2364    1.2987 H   0  0  0  0  0  0  0  0  0  0  0  0
   -2.7704    2.8283   -0.7297 H   0  0  0  0  0  0  0  0  0  0  0  0
   -4.2474    3.3057    0.0581 H   0  0  0  0  0  0  0  0  0  0  0  0
   -3.1116    3.2612    2.1745 H   0  0  0  0  0  0  0  0  0  0  0  0
   -0.8401    3.4327    2.3989 H   0  0  0  0  0  0  0  0  0  0  0  0
   -1.1770    1.8603    1.7238 H   0  0  0  0  0  0  0  0  0  0  0  0
   -0.6476    2.7677   -0.5867 H   0  0  0  0  0  0  0  0  0  0  0  0
   -0.3400    4.3511    0.1162 H   0  0  0  0  0  0  0  0  0  0  0  0
    2.9733    3.5092   -0.6264 H   0  0  0  0  0  0  0  0  0  0  0  0
    1.4994    3.3167   -1.6150 H   0  0  0  0  0  0  0  0  0  0  0  0
    2.0694    0.9456    1.3657 H   0  0  0  0  0  0  0  0  0  0  0  0
    0.5633    0.7104    0.4303 H   0  0  0  0  0  0  0  0  0  0  0  0
   -6.4027   -2.0724    0.1149 H   0  0  0  0  0  0  0  0  0  0  0  0
   -6.7986   -0.4223   -0.5052 H   0  0  0  0  0  0  0  0  0  0  0  0
   -5.0863   -2.5670   -1.9519 H   0  0  0  0  0  0  0  0  0  0  0  0
   -5.5189   -0.9346   -2.6089 H   0  0  0  0  0  0  0  0  0  0  0  0
  1  2  1  0
  2  3  1  0
  2  4  1  0
  2  5  1  0
  5  6  1  0
  6  7  1  0
  7  8  2  0
  7  9  1  0
  9 10  2  0
 10 11  1  0
 11 12  1  0
 12 13  2  0
 13 14  1  0
 14 15  2  0
 15 16  1  0
 16 17  2  0
 15 18  1  0
 18 19  1  0
 19 20  1  0
 20 21  1  0
 21 22  1  0
 22 23  1  0
 23 24  1  0
 24 25  1  0
 25 26  1  0
 26 27  3  0
 25 28  1  0
 28 29  1  0
 29 30  1  0
 29 31  1  0
 31 32  2  0
 18 33  1  0
 33 34  1  0
 31  5  1  0
 17  9  1  0
 34 18  1  0
 17 12  1  0
 30 25  1  0
  1 35  1  0
  1 36  1  0
  1 37  1  0
  3 38  1  0
  3 39  1  0
  3 40  1  0
  4 41  1  0
  4 42  1  0
  4 43  1  0
  5 44  1  6
  6 45  1  0
 10 46  1  0
 11 47  1  0
 14 48  1  0
 19 49  1  0
 19 50  1  0
 20 51  1  0
 20 52  1  0
 21 53  1  0
 21 54  1  0
 22 55  1  0
 23 56  1  0
 23 57  1  0
 24 58  1  0
 24 59  1  0
 28 60  1  0
 28 61  1  0
 30 62  1  0
 30 63  1  0
 33 64  1  0
 33 65  1  0
 34 66  1  0
 34 67  1  0
M  END
>  <candidate_id>  (1) 
CAND_4e8257bdee

>  <source_generator>  (1) 
v5_3_model_guided_macrocycle

>  <parent_mol_id>  (1) 
JAK2_1a53985c87

>  <canonical_smiles>  (1) 
CC(C)(C)[C@H]1NC(=O)c2c[nH]c3ncc(nc23)C2(CCCNCCC3(C#N)CN(C3)C1=O)CC2

>  <inchikey>  (1) 
KWHUAFLBPGKMEV-IBGZPJMESA-N

>  <valid_rdkit>  (1) 
True

>  <unique_flag>  (1) 
True

>  <novel_flag>  (1) 
True

>  <mw>  (1) 
463.586

>  <logp>  (1) 
2.2597

>  <tpsa>  (1) 
126.8

>  <hbd>  (1) 
3

>  <hba>  (1) 
6

>  <rotatable_bonds>  (1) 
0

>  <qed>  (1) 
0.55

>  <sa_score>  (1) 
4.281

>  <murcko_scaffold>  (1) 
O=C1NCC(=O)N2CC(CCNCCCC3(CC3)c3cnc4[nH]cc1c4n3)C2

>  <max_ring_size>  (1) 
18

>  <has_macrocycle_12_20>  (1) 
True

>  <has_constrained_ring_8_11>  (1) 
False

>  <passes_basic_filters>  (1) 
True

>  <generation_notes>  (1) 
v5_3_model_guided_anchor_pair=15-24;anchor_scores=0.691,0.691;linker_length=6;target_ring=17;linker_prob=0.248;chemotype=aza

$$$$
