CAND_a28891a72c
     RDKit          3D

 58 62  0  0  0  0  0  0  0  0999 V2000
   -4.1021   -1.2946    1.4239 C   0  0  0  0  0  0  0  0  0  0  0  0
   -3.4526    0.0802    1.1623 C   0  0  0  0  0  0  0  0  0  0  0  0
   -4.0601    0.7123   -0.0981 C   0  0  0  0  0  0  0  0  0  0  0  0
   -3.8688    0.9900    2.3505 C   0  0  0  0  0  0  0  0  0  0  0  0
   -1.8951   -0.0348    1.1459 C   0  0  1  0  0  0  0  0  0  0  0  0
   -1.2059   -1.1034    0.4194 N   0  0  0  0  0  0  0  0  0  0  0  0
   -1.4743   -1.7573   -0.7530 C   0  0  0  0  0  0  0  0  0  0  0  0
   -2.5371   -1.7285   -1.3552 O   0  0  0  0  0  0  0  0  0  0  0  0
   -0.3132   -2.4682   -1.2867 C   0  0  0  0  0  0  0  0  0  0  0  0
   -0.2891   -3.3719   -2.3404 C   0  0  0  0  0  0  0  0  0  0  0  0
    1.0213   -3.7241   -2.5854 N   0  0  0  0  0  0  0  0  0  0  0  0
    1.8472   -3.0328   -1.7423 C   0  0  0  0  0  0  0  0  0  0  0  0
    3.1947   -3.0322   -1.7429 N   0  0  0  0  0  0  0  0  0  0  0  0
    3.6705   -2.1445   -0.8189 C   0  0  0  0  0  0  0  0  0  0  0  0
    2.8960   -1.3715    0.0614 C   0  0  0  0  0  0  0  0  0  0  0  0
    1.5468   -1.4844    0.0645 N   0  0  0  0  0  0  0  0  0  0  0  0
    1.0394   -2.2915   -0.8981 C   0  0  0  0  0  0  0  0  0  0  0  0
    3.5067   -0.3198    0.9894 C   0  0  0  0  0  0  0  0  0  0  0  0
    4.6755   -0.7072    1.8841 C   0  0  0  0  0  0  0  0  0  0  0  0
    3.3203   -0.5068    2.4894 C   0  0  0  0  0  0  0  0  0  0  0  0
    3.4511    1.1039    0.4426 C   0  0  0  0  0  0  0  0  0  0  0  0
    2.0740    1.5883    0.4927 N   0  0  0  0  0  0  0  0  0  0  0  0
    1.6918    2.3722   -0.6793 C   0  0  0  0  0  0  0  0  0  0  0  0
    0.1972    2.7726   -0.6613 C   0  0  0  0  0  0  0  0  0  0  0  0
   -0.5989    2.7545   -1.9957 C   0  0  0  0  0  0  0  0  0  0  0  0
    0.1476    2.9660   -3.2099 C   0  0  0  0  0  0  0  0  0  0  0  0
    0.7630    3.1431   -4.1772 N   0  0  0  0  0  0  0  0  0  0  0  0
   -0.9458    1.2841   -1.6576 C   0  0  0  0  0  0  0  0  0  0  0  0
   -0.6925    1.6651   -0.2863 N   0  0  0  0  0  0  0  0  0  0  0  0
   -1.1139    1.2949    0.9555 C   0  0  0  0  0  0  0  0  0  0  0  0
   -0.9171    2.0439    1.9205 O   0  0  0  0  0  0  0  0  0  0  0  0
   -3.6905   -1.7584    2.3276 H   0  0  0  0  0  0  0  0  0  0  0  0
   -5.1847   -1.1982    1.5686 H   0  0  0  0  0  0  0  0  0  0  0  0
   -3.9575   -1.9925    0.5971 H   0  0  0  0  0  0  0  0  0  0  0  0
   -3.6586    1.7150   -0.2776 H   0  0  0  0  0  0  0  0  0  0  0  0
   -5.1467    0.8200    0.0066 H   0  0  0  0  0  0  0  0  0  0  0  0
   -3.8961    0.1152   -0.9942 H   0  0  0  0  0  0  0  0  0  0  0  0
   -4.9595    1.0277    2.4579 H   0  0  0  0  0  0  0  0  0  0  0  0
   -3.5258    2.0205    2.2114 H   0  0  0  0  0  0  0  0  0  0  0  0
   -3.4598    0.6214    3.2980 H   0  0  0  0  0  0  0  0  0  0  0  0
   -1.6297   -0.3103    2.1799 H   0  0  0  0  0  0  0  0  0  0  0  0
   -0.2439   -1.2117    0.7431 H   0  0  0  0  0  0  0  0  0  0  0  0
   -1.0924   -3.7719   -2.9464 H   0  0  0  0  0  0  0  0  0  0  0  0
    1.3481   -4.3449   -3.3124 H   0  0  0  0  0  0  0  0  0  0  0  0
    4.7531   -2.0499   -0.8121 H   0  0  0  0  0  0  0  0  0  0  0  0
    5.0581   -1.7217    1.8540 H   0  0  0  0  0  0  0  0  0  0  0  0
    5.4370    0.0350    2.0978 H   0  0  0  0  0  0  0  0  0  0  0  0
    2.7753   -1.3796    2.8332 H   0  0  0  0  0  0  0  0  0  0  0  0
    3.1546    0.3734    3.1006 H   0  0  0  0  0  0  0  0  0  0  0  0
    4.0921    1.7788    1.0223 H   0  0  0  0  0  0  0  0  0  0  0  0
    3.8507    1.0960   -0.5795 H   0  0  0  0  0  0  0  0  0  0  0  0
    1.8812    2.0839    1.3627 H   0  0  0  0  0  0  0  0  0  0  0  0
    2.3042    3.2788   -0.7493 H   0  0  0  0  0  0  0  0  0  0  0  0
    1.8994    1.7672   -1.5699 H   0  0  0  0  0  0  0  0  0  0  0  0
    0.0219    3.6719   -0.0579 H   0  0  0  0  0  0  0  0  0  0  0  0
   -1.4855    3.4047   -1.9493 H   0  0  0  0  0  0  0  0  0  0  0  0
   -1.9713    1.0046   -1.8945 H   0  0  0  0  0  0  0  0  0  0  0  0
   -0.2502    0.5271   -2.0313 H   0  0  0  0  0  0  0  0  0  0  0  0
  1  2  1  0
  2  3  1  0
  2  4  1  0
  2  5  1  0
  5  6  1  0
  6  7  1  0
  7  8  2  0
  7  9  1  0
  9 10  2  0
 10 11  1  0
 11 12  1  0
 12 13  2  0
 13 14  1  0
 14 15  2  0
 15 16  1  0
 16 17  2  0
 15 18  1  0
 18 19  1  0
 19 20  1  0
 18 21  1  0
 21 22  1  0
 22 23  1  0
 23 24  1  0
 24 25  1  0
 25 26  1  0
 26 27  3  0
 25 28  1  0
 28 29  1  0
 29 30  1  0
 30 31  2  0
 30  5  1  0
 17  9  1  0
 20 18  1  0
 29 24  1  0
 17 12  1  0
  1 32  1  0
  1 33  1  0
  1 34  1  0
  3 35  1  0
  3 36  1  0
  3 37  1  0
  4 38  1  0
  4 39  1  0
  4 40  1  0
  5 41  1  1
  6 42  1  0
 10 43  1  0
 11 44  1  0
 14 45  1  0
 19 46  1  0
 19 47  1  0
 20 48  1  0
 20 49  1  0
 21 50  1  0
 21 51  1  0
 22 52  1  0
 23 53  1  0
 23 54  1  0
 24 55  1  0
 25 56  1  0
 28 57  1  0
 28 58  1  0
M  END
>  <candidate_id>  (1) 
CAND_a28891a72c

>  <source_generator>  (1) 
v5_3_model_guided_macrocycle

>  <parent_mol_id>  (1) 
JAK2_1a53985c87

>  <canonical_smiles>  (1) 
CC(C)(C)[C@H]1NC(=O)c2c[nH]c3ncc(nc23)C2(CC2)CNCC2C(C#N)CN2C1=O

>  <inchikey>  (1) 
ZBDUOXGCIIUPIH-AJUCZRQESA-N

>  <valid_rdkit>  (1) 
True

>  <unique_flag>  (1) 
True

>  <novel_flag>  (1) 
True

>  <mw>  (1) 
421.505

>  <logp>  (1) 
1.0878

>  <tpsa>  (1) 
126.8

>  <hbd>  (1) 
3

>  <hba>  (1) 
6

>  <rotatable_bonds>  (1) 
0

>  <qed>  (1) 
0.5844

>  <sa_score>  (1) 
4.547

>  <murcko_scaffold>  (1) 
O=C1NCC(=O)N2CCC2CNCC2(CC2)c2cnc3[nH]cc1c3n2

>  <max_ring_size>  (1) 
14

>  <has_macrocycle_12_20>  (1) 
True

>  <has_constrained_ring_8_11>  (1) 
False

>  <passes_basic_filters>  (1) 
True

>  <generation_notes>  (1) 
v5_3_model_guided_anchor_pair=15-23;anchor_scores=0.691,0.079;linker_length=3;target_ring=13;linker_prob=0.353;chemotype=aza

$$$$
