CAND_1675c88065
     RDKit          3D

 70 76  0  0  0  0  0  0  0  0999 V2000
    3.4900   -1.7315   -1.8252 F   0  0  0  0  0  0  0  0  0  0  0  0
    3.5714   -1.0053   -0.7008 C   0  0  0  0  0  0  0  0  0  0  0  0
    3.7777    0.3670   -0.8084 C   0  0  0  0  0  0  0  0  0  0  0  0
    3.8278    1.1677    0.3413 C   0  0  0  0  0  0  0  0  0  0  0  0
    3.7122    0.5494    1.5929 C   0  0  0  0  0  0  0  0  0  0  0  0
    3.5025   -0.8261    1.6795 C   0  0  0  0  0  0  0  0  0  0  0  0
    3.3725   -1.3774    2.8949 F   0  0  0  0  0  0  0  0  0  0  0  0
    3.4082   -1.6226    0.5382 C   0  0  0  0  0  0  0  0  0  0  0  0
    3.0620   -3.0833    0.6347 C   0  0  0  0  0  0  0  0  0  0  0  0
    1.6284   -3.3117    0.8815 N   0  0  0  0  0  0  0  0  0  0  0  0
    1.3397   -4.7231    1.2054 C   0  0  0  0  0  0  0  0  0  0  0  0
    0.6924   -5.4956    0.0478 C   0  0  0  0  0  0  0  0  0  0  0  0
   -0.5466   -4.9229   -0.3883 O   0  0  0  0  0  0  0  0  0  0  0  0
   -0.6181   -3.4909   -0.2056 C   0  0  0  0  0  0  0  0  0  0  0  0
   -1.5579   -2.9380   -1.3021 C   0  0  0  0  0  0  0  0  0  0  0  0
   -1.8765   -1.5044   -1.3036 N   0  0  0  0  0  0  0  0  0  0  0  0
   -2.4324   -1.0259   -0.0309 C   0  0  0  0  0  0  0  0  0  0  0  0
   -3.2407    0.3163   -0.1343 C   0  0  0  0  0  0  0  0  0  0  0  0
   -4.4281    0.0789   -1.1195 C   0  0  0  0  0  0  0  0  0  0  0  0
   -5.6677    0.8681   -0.7109 C   0  0  0  0  0  0  0  0  0  0  0  0
   -6.1724    0.4816    0.6086 N   0  0  0  0  0  0  0  0  0  0  0  0
   -5.1424    0.0326    1.5403 C   0  0  0  0  0  0  0  0  0  0  0  0
   -3.7873    0.6804    1.2759 C   0  0  0  0  0  0  0  0  0  0  0  0
   -2.3821    1.4396   -0.5748 N   0  0  0  0  0  0  0  0  0  0  0  0
   -1.0868    1.7016   -0.2051 C   0  0  0  0  0  0  0  0  0  0  0  0
   -0.7510    2.9274   -0.7474 C   0  0  0  0  0  0  0  0  0  0  0  0
   -1.9185    3.3297   -1.4234 C   0  0  0  0  0  0  0  0  0  0  0  0
   -2.9096    2.4459   -1.3112 N   0  0  0  0  0  0  0  0  0  0  0  0
    0.5276    3.5856   -0.5780 C   0  0  0  0  0  0  0  0  0  0  0  0
    0.6825    4.9528   -0.7244 C   0  0  0  0  0  0  0  0  0  0  0  0
    1.8725    5.5781   -0.5548 N   0  0  0  0  0  0  0  0  0  0  0  0
    2.9219    4.7971   -0.2354 C   0  0  0  0  0  0  0  0  0  0  0  0
    4.1627    5.3891   -0.0437 C   0  0  0  0  0  0  0  0  0  0  0  0
    5.2868    4.6346    0.2846 C   0  0  0  0  0  0  0  0  0  0  0  0
    5.1703    3.2569    0.4171 C   0  0  0  0  0  0  0  0  0  0  0  0
    3.9285    2.6291    0.2249 C   0  0  0  0  0  0  0  0  0  0  0  0
    2.7887    3.3931   -0.0922 C   0  0  0  0  0  0  0  0  0  0  0  0
    1.5812    2.8000   -0.2604 N   0  0  0  0  0  0  0  0  0  0  0  0
    0.7807   -2.8427   -0.2413 C   0  0  0  0  0  0  0  0  0  0  0  0
    3.8553    0.8097   -1.7981 H   0  0  0  0  0  0  0  0  0  0  0  0
    3.7404    1.1336    2.5088 H   0  0  0  0  0  0  0  0  0  0  0  0
    3.6508   -3.4985    1.4640 H   0  0  0  0  0  0  0  0  0  0  0  0
    3.3959   -3.6201   -0.2630 H   0  0  0  0  0  0  0  0  0  0  0  0
    0.6363   -4.7160    2.0476 H   0  0  0  0  0  0  0  0  0  0  0  0
    2.2321   -5.2543    1.5564 H   0  0  0  0  0  0  0  0  0  0  0  0
    0.4847   -6.5258    0.3543 H   0  0  0  0  0  0  0  0  0  0  0  0
    1.3692   -5.5445   -0.8133 H   0  0  0  0  0  0  0  0  0  0  0  0
   -1.0797   -3.3232    0.7757 H   0  0  0  0  0  0  0  0  0  0  0  0
   -2.5004   -3.5008   -1.2671 H   0  0  0  0  0  0  0  0  0  0  0  0
   -1.1331   -3.1865   -2.2834 H   0  0  0  0  0  0  0  0  0  0  0  0
   -1.0596   -0.9504   -1.5652 H   0  0  0  0  0  0  0  0  0  0  0  0
   -1.6219   -0.9279    0.7010 H   0  0  0  0  0  0  0  0  0  0  0  0
   -3.1082   -1.7934    0.3693 H   0  0  0  0  0  0  0  0  0  0  0  0
   -4.7055   -0.9846   -1.1361 H   0  0  0  0  0  0  0  0  0  0  0  0
   -4.1490    0.3248   -2.1516 H   0  0  0  0  0  0  0  0  0  0  0  0
   -6.4622    0.7127   -1.4498 H   0  0  0  0  0  0  0  0  0  0  0  0
   -5.4631    1.9439   -0.7082 H   0  0  0  0  0  0  0  0  0  0  0  0
   -6.8895   -0.2373    0.5148 H   0  0  0  0  0  0  0  0  0  0  0  0
   -5.4693    0.2678    2.5589 H   0  0  0  0  0  0  0  0  0  0  0  0
   -5.0509   -1.0585    1.4860 H   0  0  0  0  0  0  0  0  0  0  0  0
   -3.0753    0.3792    2.0548 H   0  0  0  0  0  0  0  0  0  0  0  0
   -3.8978    1.7690    1.3837 H   0  0  0  0  0  0  0  0  0  0  0  0
   -0.5144    1.0280    0.4173 H   0  0  0  0  0  0  0  0  0  0  0  0
   -2.0993    4.2327   -1.9921 H   0  0  0  0  0  0  0  0  0  0  0  0
   -0.1463    5.6068   -0.9707 H   0  0  0  0  0  0  0  0  0  0  0  0
    4.2534    6.4677   -0.1533 H   0  0  0  0  0  0  0  0  0  0  0  0
    6.2477    5.1220    0.4299 H   0  0  0  0  0  0  0  0  0  0  0  0
    6.0512    2.6665    0.6632 H   0  0  0  0  0  0  0  0  0  0  0  0
    0.6863   -1.7537   -0.1780 H   0  0  0  0  0  0  0  0  0  0  0  0
    1.2521   -3.0901   -1.2018 H   0  0  0  0  0  0  0  0  0  0  0  0
  1  2  1  0
  2  3  1  0
  3  4  2  0
  4  5  1  0
  5  6  2  0
  6  7  1  0
  6  8  1  0
  8  9  1  0
  9 10  1  0
 10 11  1  0
 11 12  1  0
 12 13  1  0
 13 14  1  0
 14 15  1  0
 15 16  1  0
 16 17  1  0
 17 18  1  0
 18 19  1  0
 19 20  1  0
 20 21  1  0
 21 22  1  0
 22 23  1  0
 18 24  1  0
 24 25  1  0
 25 26  2  0
 26 27  1  0
 27 28  2  0
 26 29  1  0
 29 30  2  0
 30 31  1  0
 31 32  2  0
 32 33  1  0
 33 34  2  0
 34 35  1  0
 35 36  2  0
 36 37  1  0
 37 38  2  0
 14 39  1  0
  8  2  2  0
 39 10  1  0
 36  4  1  0
 23 18  1  0
 28 24  1  0
 38 29  1  0
 37 32  1  0
  3 40  1  0
  5 41  1  0
  9 42  1  0
  9 43  1  0
 11 44  1  0
 11 45  1  0
 12 46  1  0
 12 47  1  0
 14 48  1  0
 15 49  1  0
 15 50  1  0
 16 51  1  0
 17 52  1  0
 17 53  1  0
 19 54  1  0
 19 55  1  0
 20 56  1  0
 20 57  1  0
 21 58  1  0
 22 59  1  0
 22 60  1  0
 23 61  1  0
 23 62  1  0
 25 63  1  0
 27 64  1  0
 30 65  1  0
 33 66  1  0
 34 67  1  0
 35 68  1  0
 39 69  1  0
 39 70  1  0
M  END
>  <candidate_id>  (1) 
CAND_1675c88065

>  <source_generator>  (1) 
v5_3_model_guided_macrocycle

>  <parent_mol_id>  (1) 
JAK2_2dc2722230

>  <canonical_smiles>  (1) 
Fc1cc2cc(F)c1CN1CCOC(CNCC3(CCNCC3)n3cc(cn3)-c3cnc4cccc-2c4n3)C1

>  <inchikey>  (1) 
SOTCITIOJRKMGI-UHFFFAOYSA-N

>  <valid_rdkit>  (1) 
True

>  <unique_flag>  (1) 
True

>  <novel_flag>  (1) 
True

>  <mw>  (1) 
531.611

>  <logp>  (1) 
3.3212

>  <tpsa>  (1) 
80.13

>  <hbd>  (1) 
2

>  <hba>  (1) 
7

>  <rotatable_bonds>  (1) 
0

>  <qed>  (1) 
0.3605

>  <sa_score>  (1) 
4.909

>  <murcko_scaffold>  (1) 
c1cc2c3nc(cnc3c1)-c1cnn(c1)C1(CCNCC1)CNCC1CN(CCO1)Cc1ccc-2cc1

>  <max_ring_size>  (1) 
19

>  <has_macrocycle_12_20>  (1) 
True

>  <has_constrained_ring_8_11>  (1) 
False

>  <passes_basic_filters>  (1) 
True

>  <generation_notes>  (1) 
v5_3_model_guided_anchor_pair=16-32;anchor_scores=0.691,0.079;linker_length=3;target_ring=18;linker_prob=0.496;chemotype=aza

$$$$
