CAND_492981f42f
     RDKit          3D

 56 61  0  0  0  0  0  0  0  0999 V2000
    7.0969    1.4953    2.6215 N   0  0  0  0  0  0  0  0  0  0  0  0
    6.3870    1.0086    1.8436 C   0  0  0  0  0  0  0  0  0  0  0  0
    5.5054    0.3864    0.8575 C   0  0  2  0  0  0  0  0  0  0  0  0
    5.2798    1.2601   -0.3767 C   0  0  0  0  0  0  0  0  0  0  0  0
    3.9851    0.7067   -0.9579 C   0  0  0  0  0  0  0  0  0  0  0  0
    3.2557    0.1996    0.1927 N   0  0  0  0  0  0  0  0  0  0  0  0
    1.9202   -0.1434    0.2590 C   0  0  0  0  0  0  0  0  0  0  0  0
    1.4059   -0.4585    1.3369 O   0  0  0  0  0  0  0  0  0  0  0  0
    1.0902   -0.0977   -1.0639 C   0  0  2  0  0  0  0  0  0  0  0  0
    0.0614    0.9307   -0.9632 N   0  0  0  0  0  0  0  0  0  0  0  0
    0.2350    2.2076   -0.5101 C   0  0  0  0  0  0  0  0  0  0  0  0
    1.3094    2.7956   -0.5062 O   0  0  0  0  0  0  0  0  0  0  0  0
   -0.9942    2.7526    0.0707 C   0  0  0  0  0  0  0  0  0  0  0  0
   -1.1476    4.0014    0.6576 C   0  0  0  0  0  0  0  0  0  0  0  0
   -2.4120    4.0798    1.1984 N   0  0  0  0  0  0  0  0  0  0  0  0
   -3.0814    2.9071    0.9819 C   0  0  0  0  0  0  0  0  0  0  0  0
   -4.3214    2.5970    1.4070 N   0  0  0  0  0  0  0  0  0  0  0  0
   -4.6595    1.3317    1.0192 C   0  0  0  0  0  0  0  0  0  0  0  0
   -3.8634    0.4482    0.2711 C   0  0  0  0  0  0  0  0  0  0  0  0
   -2.6349    0.8369   -0.1445 N   0  0  0  0  0  0  0  0  0  0  0  0
   -2.2440    2.0808    0.2509 C   0  0  0  0  0  0  0  0  0  0  0  0
   -4.4115   -0.8809   -0.2241 C   0  0  0  0  0  0  0  0  0  0  0  0
   -5.0556   -1.8531    0.7357 C   0  0  0  0  0  0  0  0  0  0  0  0
   -3.8073   -2.2703    0.0006 C   0  0  0  0  0  0  0  0  0  0  0  0
   -2.6016   -2.6420    0.8143 C   0  0  0  0  0  0  0  0  0  0  0  0
   -1.4087   -2.8810   -0.0266 N   0  0  0  0  0  0  0  0  0  0  0  0
   -0.9370   -1.5889   -0.5073 C   0  0  0  0  0  0  0  0  0  0  0  0
    0.3828   -1.4774   -1.2562 C   0  0  0  0  0  0  0  0  0  0  0  0
    0.4431   -2.1122   -2.6372 C   0  0  0  0  0  0  0  0  0  0  0  0
    1.2467   -2.7028   -1.5193 C   0  0  0  0  0  0  0  0  0  0  0  0
    4.0894    0.1942    1.3843 C   0  0  0  0  0  0  0  0  0  0  0  0
    5.9133   -0.5822    0.5410 H   0  0  0  0  0  0  0  0  0  0  0  0
    5.1399    2.3113   -0.0919 H   0  0  0  0  0  0  0  0  0  0  0  0
    6.1090    1.2164   -1.0897 H   0  0  0  0  0  0  0  0  0  0  0  0
    3.4150    1.4699   -1.4927 H   0  0  0  0  0  0  0  0  0  0  0  0
    4.1757   -0.1368   -1.6301 H   0  0  0  0  0  0  0  0  0  0  0  0
    1.7101    0.1345   -1.9317 H   0  0  0  0  0  0  0  0  0  0  0  0
   -0.9039    0.6575   -1.1076 H   0  0  0  0  0  0  0  0  0  0  0  0
   -0.4477    4.8203    0.7666 H   0  0  0  0  0  0  0  0  0  0  0  0
   -2.7941    4.8594    1.7146 H   0  0  0  0  0  0  0  0  0  0  0  0
   -5.6605    1.0317    1.3198 H   0  0  0  0  0  0  0  0  0  0  0  0
   -4.9073   -0.7786   -1.1902 H   0  0  0  0  0  0  0  0  0  0  0  0
   -5.9914   -2.3151    0.4396 H   0  0  0  0  0  0  0  0  0  0  0  0
   -4.9812   -1.6684    1.8022 H   0  0  0  0  0  0  0  0  0  0  0  0
   -3.9426   -2.9872   -0.8065 H   0  0  0  0  0  0  0  0  0  0  0  0
   -2.3991   -1.9105    1.6066 H   0  0  0  0  0  0  0  0  0  0  0  0
   -2.8272   -3.5867    1.3236 H   0  0  0  0  0  0  0  0  0  0  0  0
   -0.6813   -3.2546    0.5837 H   0  0  0  0  0  0  0  0  0  0  0  0
   -1.6945   -1.2102   -1.2008 H   0  0  0  0  0  0  0  0  0  0  0  0
   -0.8785   -0.9362    0.3687 H   0  0  0  0  0  0  0  0  0  0  0  0
   -0.4202   -2.6724   -2.9836 H   0  0  0  0  0  0  0  0  0  0  0  0
    0.9721   -1.5972   -3.4306 H   0  0  0  0  0  0  0  0  0  0  0  0
    2.3240   -2.5853   -1.5523 H   0  0  0  0  0  0  0  0  0  0  0  0
    0.9326   -3.6660   -1.1329 H   0  0  0  0  0  0  0  0  0  0  0  0
    3.9660   -0.7439    1.9359 H   0  0  0  0  0  0  0  0  0  0  0  0
    3.7579    1.0179    2.0289 H   0  0  0  0  0  0  0  0  0  0  0  0
  1  2  3  0
  2  3  1  0
  3  4  1  0
  4  5  1  0
  5  6  1  0
  6  7  1  0
  7  8  2  0
  7  9  1  0
  9 10  1  0
 10 11  1  0
 11 12  2  0
 11 13  1  0
 13 14  2  0
 14 15  1  0
 15 16  1  0
 16 17  2  0
 17 18  1  0
 18 19  2  0
 19 20  1  0
 20 21  2  0
 19 22  1  0
 22 23  1  0
 23 24  1  0
 24 25  1  0
 25 26  1  0
 26 27  1  0
 27 28  1  0
 28 29  1  0
 29 30  1  0
  6 31  1  0
 31  3  1  0
 28  9  1  0
 21 13  1  0
 24 22  1  0
 30 28  1  0
 21 16  1  0
  3 32  1  6
  4 33  1  0
  4 34  1  0
  5 35  1  0
  5 36  1  0
  9 37  1  6
 10 38  1  0
 14 39  1  0
 15 40  1  0
 18 41  1  0
 22 42  1  0
 23 43  1  0
 23 44  1  0
 24 45  1  0
 25 46  1  0
 25 47  1  0
 26 48  1  0
 27 49  1  0
 27 50  1  0
 29 51  1  0
 29 52  1  0
 30 53  1  0
 30 54  1  0
 31 55  1  0
 31 56  1  0
M  END
>  <candidate_id>  (1) 
CAND_492981f42f

>  <source_generator>  (1) 
v5_3_model_guided_macrocycle

>  <parent_mol_id>  (1) 
JAK2_69b6c7ad6e

>  <canonical_smiles>  (1) 
N#C[C@@H]1CCN(C(=O)[C@@H]2NC(=O)c3c[nH]c4ncc(nc34)C3CC3CNCC23CC3)C1

>  <inchikey>  (1) 
IPHWYJUXNGKNHB-YGFYOVKCSA-N

>  <valid_rdkit>  (1) 
True

>  <unique_flag>  (1) 
True

>  <novel_flag>  (1) 
True

>  <mw>  (1) 
419.489

>  <logp>  (1) 
0.9153

>  <tpsa>  (1) 
126.8

>  <hbd>  (1) 
3

>  <hba>  (1) 
6

>  <rotatable_bonds>  (1) 
1

>  <qed>  (1) 
0.6308

>  <sa_score>  (1) 
4.911

>  <murcko_scaffold>  (1) 
O=C1N[C@@H](C(=O)N2CCCC2)C2(CC2)CNCC2CC2c2cnc3[nH]cc1c3n2

>  <max_ring_size>  (1) 
13

>  <has_macrocycle_12_20>  (1) 
True

>  <has_constrained_ring_8_11>  (1) 
False

>  <passes_basic_filters>  (1) 
True

>  <generation_notes>  (1) 
v5_3_model_guided_anchor_pair=24-20;anchor_scores=0.691,0.079;linker_length=3;target_ring=12;linker_prob=0.278;chemotype=aza

$$$$
