CAND_dbfbb7d1cf
     RDKit          3D

 74 80  0  0  0  0  0  0  0  0999 V2000
    6.9269   -0.5781    0.6274 C   0  0  0  0  0  0  0  0  0  0  0  0
    6.1391   -0.6693   -0.5995 N   0  0  0  0  0  0  0  0  0  0  0  0
    5.7056   -2.0633   -0.8373 C   0  0  0  0  0  0  0  0  0  0  0  0
    4.3611   -2.1958   -1.5879 C   0  0  0  0  0  0  0  0  0  0  0  0
    3.2897   -1.5691   -0.7988 N   0  0  0  0  0  0  0  0  0  0  0  0
    2.0935   -2.2354   -0.5921 C   0  0  0  0  0  0  0  0  0  0  0  0
    1.4127   -2.1557    0.6285 C   0  0  0  0  0  0  0  0  0  0  0  0
    0.1216   -2.6638    0.7796 C   0  0  0  0  0  0  0  0  0  0  0  0
   -0.5354   -3.2992   -0.2820 C   0  0  0  0  0  0  0  0  0  0  0  0
    0.1741   -3.4812   -1.4734 C   0  0  0  0  0  0  0  0  0  0  0  0
    1.4676   -2.9548   -1.6210 C   0  0  0  0  0  0  0  0  0  0  0  0
   -1.9589   -3.6067   -0.1626 C   0  0  0  0  0  0  0  0  0  0  0  0
   -2.5460   -4.8342   -0.3969 C   0  0  0  0  0  0  0  0  0  0  0  0
   -3.8824   -5.0395   -0.2714 N   0  0  0  0  0  0  0  0  0  0  0  0
   -4.6317   -3.9703    0.0790 C   0  0  0  0  0  0  0  0  0  0  0  0
   -6.0074   -4.1036    0.2099 C   0  0  0  0  0  0  0  0  0  0  0  0
   -6.8164   -3.0172    0.5463 C   0  0  0  0  0  0  0  0  0  0  0  0
   -6.2432   -1.7657    0.7501 C   0  0  0  0  0  0  0  0  0  0  0  0
   -4.8555   -1.5963    0.6325 C   0  0  0  0  0  0  0  0  0  0  0  0
   -4.0482   -2.7025    0.3080 C   0  0  0  0  0  0  0  0  0  0  0  0
   -2.7162   -2.5462    0.1965 N   0  0  0  0  0  0  0  0  0  0  0  0
   -4.2445   -0.2612    0.7966 C   0  0  0  0  0  0  0  0  0  0  0  0
   -4.4692    0.7501   -0.1468 C   0  0  0  0  0  0  0  0  0  0  0  0
   -3.7718    1.9572   -0.0710 C   0  0  0  0  0  0  0  0  0  0  0  0
   -4.0246    2.8938   -0.9977 F   0  0  0  0  0  0  0  0  0  0  0  0
   -2.8332    2.2044    0.9334 C   0  0  0  0  0  0  0  0  0  0  0  0
   -2.6575    1.2174    1.8998 C   0  0  0  0  0  0  0  0  0  0  0  0
   -1.7972    1.4167    2.9092 F   0  0  0  0  0  0  0  0  0  0  0  0
   -3.3445    0.0037    1.8408 C   0  0  0  0  0  0  0  0  0  0  0  0
   -2.0591    3.4946    0.9705 C   0  0  0  0  0  0  0  0  0  0  0  0
   -1.1316    3.6272   -0.1624 N   0  0  0  0  0  0  0  0  0  0  0  0
   -1.3366    4.9203   -0.8526 C   0  0  0  0  0  0  0  0  0  0  0  0
   -0.1451    5.3100   -1.7304 C   0  0  0  0  0  0  0  0  0  0  0  0
    1.0379    5.5235   -0.9532 O   0  0  0  0  0  0  0  0  0  0  0  0
    1.1190    4.6742    0.2051 C   0  0  0  0  0  0  0  0  0  0  0  0
    0.3221    3.3485    0.0623 C   0  0  0  0  0  0  0  0  0  0  0  0
    0.6693    2.3446    1.1866 C   0  0  0  0  0  0  0  0  0  0  0  0
    2.4364    1.8363    1.2762 S   0  0  0  0  0  0  0  0  0  0  0  0
    2.5311    0.7660   -0.2131 C   0  0  0  0  0  0  0  0  0  0  0  0
    3.6366   -0.3187   -0.0589 C   0  0  0  0  0  0  0  0  0  0  0  0
    4.9897    0.2625   -0.5802 C   0  0  0  0  0  0  0  0  0  0  0  0
    7.3348    0.4315    0.7476 H   0  0  0  0  0  0  0  0  0  0  0  0
    6.3367   -0.8192    1.5188 H   0  0  0  0  0  0  0  0  0  0  0  0
    7.7844   -1.2589    0.5847 H   0  0  0  0  0  0  0  0  0  0  0  0
    5.6004   -2.5993    0.1165 H   0  0  0  0  0  0  0  0  0  0  0  0
    6.4884   -2.5758   -1.4080 H   0  0  0  0  0  0  0  0  0  0  0  0
    4.1745   -3.2650   -1.7456 H   0  0  0  0  0  0  0  0  0  0  0  0
    4.4186   -1.7213   -2.5747 H   0  0  0  0  0  0  0  0  0  0  0  0
    1.8561   -1.6485    1.4808 H   0  0  0  0  0  0  0  0  0  0  0  0
   -0.3978   -2.5029    1.7230 H   0  0  0  0  0  0  0  0  0  0  0  0
   -0.2984   -3.9521   -2.3325 H   0  0  0  0  0  0  0  0  0  0  0  0
    1.9465   -3.0402   -2.5934 H   0  0  0  0  0  0  0  0  0  0  0  0
   -1.9629   -5.7019   -0.6840 H   0  0  0  0  0  0  0  0  0  0  0  0
   -6.4592   -5.0782    0.0392 H   0  0  0  0  0  0  0  0  0  0  0  0
   -7.8919   -3.1489    0.6393 H   0  0  0  0  0  0  0  0  0  0  0  0
   -6.8804   -0.9197    1.0007 H   0  0  0  0  0  0  0  0  0  0  0  0
   -5.1518    0.5964   -0.9784 H   0  0  0  0  0  0  0  0  0  0  0  0
   -3.1324   -0.7522    2.5928 H   0  0  0  0  0  0  0  0  0  0  0  0
   -2.8194    4.2894    0.9517 H   0  0  0  0  0  0  0  0  0  0  0  0
   -1.5558    3.6439    1.9319 H   0  0  0  0  0  0  0  0  0  0  0  0
   -1.4776    5.7212   -0.1142 H   0  0  0  0  0  0  0  0  0  0  0  0
   -2.2414    4.8607   -1.4671 H   0  0  0  0  0  0  0  0  0  0  0  0
    0.0630    4.5436   -2.4861 H   0  0  0  0  0  0  0  0  0  0  0  0
   -0.3583    6.2417   -2.2644 H   0  0  0  0  0  0  0  0  0  0  0  0
    2.1851    4.4953    0.3659 H   0  0  0  0  0  0  0  0  0  0  0  0
    0.7586    5.2468    1.0685 H   0  0  0  0  0  0  0  0  0  0  0  0
    0.6498    2.8838   -0.8778 H   0  0  0  0  0  0  0  0  0  0  0  0
    0.0800    1.4294    1.0820 H   0  0  0  0  0  0  0  0  0  0  0  0
    0.4384    2.7786    2.1643 H   0  0  0  0  0  0  0  0  0  0  0  0
    1.5440    0.3241   -0.3630 H   0  0  0  0  0  0  0  0  0  0  0  0
    2.7224    1.4011   -1.0848 H   0  0  0  0  0  0  0  0  0  0  0  0
    3.7753   -0.5894    0.9960 H   0  0  0  0  0  0  0  0  0  0  0  0
    4.8452    0.5862   -1.6204 H   0  0  0  0  0  0  0  0  0  0  0  0
    5.2473    1.1770   -0.0309 H   0  0  0  0  0  0  0  0  0  0  0  0
  1  2  1  0
  2  3  1  0
  3  4  1  0
  4  5  1  0
  5  6  1  0
  6  7  2  0
  7  8  1  0
  8  9  2  0
  9 10  1  0
 10 11  2  0
  9 12  1  0
 12 13  2  0
 13 14  1  0
 14 15  2  0
 15 16  1  0
 16 17  2  0
 17 18  1  0
 18 19  2  0
 19 20  1  0
 20 21  2  0
 19 22  1  0
 22 23  2  0
 23 24  1  0
 24 25  1  0
 24 26  2  0
 26 27  1  0
 27 28  1  0
 27 29  2  0
 26 30  1  0
 30 31  1  0
 31 32  1  0
 32 33  1  0
 33 34  1  0
 34 35  1  0
 35 36  1  0
 36 37  1  0
 37 38  1  0
 38 39  1  0
 39 40  1  0
 40 41  1  0
 41  2  1  0
 40  5  1  0
 11  6  1  0
 21 12  1  0
 29 22  1  0
 36 31  1  0
 20 15  1  0
  1 42  1  0
  1 43  1  0
  1 44  1  0
  3 45  1  0
  3 46  1  0
  4 47  1  0
  4 48  1  0
  7 49  1  0
  8 50  1  0
 10 51  1  0
 11 52  1  0
 13 53  1  0
 16 54  1  0
 17 55  1  0
 18 56  1  0
 23 57  1  0
 29 58  1  0
 30 59  1  0
 30 60  1  0
 32 61  1  0
 32 62  1  0
 33 63  1  0
 33 64  1  0
 35 65  1  0
 35 66  1  0
 36 67  1  0
 37 68  1  0
 37 69  1  0
 39 70  1  0
 39 71  1  0
 40 72  1  0
 41 73  1  0
 41 74  1  0
M  END
>  <candidate_id>  (1) 
CAND_dbfbb7d1cf

>  <source_generator>  (1) 
v5_3_model_guided_macrocycle

>  <parent_mol_id>  (1) 
JAK2_4424830aa8

>  <canonical_smiles>  (1) 
CN1CCN2c3ccc(cc3)-c3cnc4cccc(c4n3)-c3cc(F)c(c(F)c3)CN3CCOCC3CSCC2C1

>  <inchikey>  (1) 
ZQXFNYDUOWZAAC-UHFFFAOYSA-N

>  <valid_rdkit>  (1) 
True

>  <unique_flag>  (1) 
True

>  <novel_flag>  (1) 
True

>  <mw>  (1) 
573.713

>  <logp>  (1) 
5.31

>  <tpsa>  (1) 
44.73

>  <hbd>  (1) 
0

>  <hba>  (1) 
7

>  <rotatable_bonds>  (1) 
0

>  <qed>  (1) 
0.2826

>  <sa_score>  (1) 
5.298

>  <murcko_scaffold>  (1) 
c1cc2c3nc(cnc3c1)-c1ccc(cc1)N1CCNCC1CSCC1COCCN1Cc1ccc-2cc1

>  <max_ring_size>  (1) 
20

>  <has_macrocycle_12_20>  (1) 
True

>  <has_constrained_ring_8_11>  (1) 
False

>  <passes_basic_filters>  (1) 
True

>  <generation_notes>  (1) 
v5_3_model_guided_anchor_pair=3-24;anchor_scores=0.079,0.079;linker_length=3;target_ring=19;linker_prob=0.610;chemotype=thioether

$$$$
