CAND_6f5c819abf
     RDKit          3D

 57 62  0  0  0  0  0  0  0  0999 V2000
   -5.6440   -3.9242   -0.3974 N   0  0  0  0  0  0  0  0  0  0  0  0
   -4.5983   -3.5283   -0.7057 C   0  0  0  0  0  0  0  0  0  0  0  0
   -3.2850   -3.0214   -1.1048 C   0  0  2  0  0  0  0  0  0  0  0  0
   -2.1436   -3.6224   -0.2690 C   0  0  0  0  0  0  0  0  0  0  0  0
   -1.0579   -2.5612   -0.4175 C   0  0  0  0  0  0  0  0  0  0  0  0
    0.1746   -2.7671    0.4705 C   0  0  0  0  0  0  0  0  0  0  0  0
    1.3474   -1.8743    0.0154 C   0  0  0  0  0  0  0  0  0  0  0  0
    2.2150   -1.3900    1.1826 C   0  0  0  0  0  0  0  0  0  0  0  0
    3.4950   -0.6744    0.7316 C   0  0  0  0  0  0  0  0  0  0  0  0
    4.6386   -1.5761    0.2863 C   0  0  0  0  0  0  0  0  0  0  0  0
    4.7137   -0.8953    1.6211 C   0  0  0  0  0  0  0  0  0  0  0  0
    3.3157    0.7190    0.0641 C   0  0  0  0  0  0  0  0  0  0  0  0
    4.4071    1.4779   -0.4043 C   0  0  0  0  0  0  0  0  0  0  0  0
    4.3530    2.6850   -1.0373 N   0  0  0  0  0  0  0  0  0  0  0  0
    3.0759    3.0770   -1.1856 C   0  0  0  0  0  0  0  0  0  0  0  0
    2.6505    4.2127   -1.8141 N   0  0  0  0  0  0  0  0  0  0  0  0
    1.2774    4.2489   -1.8176 C   0  0  0  0  0  0  0  0  0  0  0  0
    0.8045    3.1282   -1.1465 C   0  0  0  0  0  0  0  0  0  0  0  0
    1.9551    2.3905   -0.7444 C   0  0  0  0  0  0  0  0  0  0  0  0
    2.0551    1.2040   -0.0855 N   0  0  0  0  0  0  0  0  0  0  0  0
   -0.5977    2.7805   -0.9622 C   0  0  0  0  0  0  0  0  0  0  0  0
   -1.4993    3.2976   -1.6128 O   0  0  0  0  0  0  0  0  0  0  0  0
   -0.8019    1.8088   -0.0250 N   0  0  0  0  0  0  0  0  0  0  0  0
   -2.0602    1.1136    0.1872 C   0  0  2  0  0  0  0  0  0  0  0  0
   -2.8327    1.7934    1.2822 C   0  0  0  0  0  0  0  0  0  0  0  0
   -4.3386    1.7034    1.3342 C   0  0  0  0  0  0  0  0  0  0  0  0
   -3.6784    3.0086    0.9884 C   0  0  0  0  0  0  0  0  0  0  0  0
   -1.5810   -0.2969    0.5998 C   0  0  0  0  0  0  0  0  0  0  0  0
   -0.8920   -0.4434    1.6112 O   0  0  0  0  0  0  0  0  0  0  0  0
   -1.8326   -1.3236   -0.2946 N   0  0  0  0  0  0  0  0  0  0  0  0
   -3.1572   -1.5085   -0.8752 C   0  0  0  0  0  0  0  0  0  0  0  0
   -3.1092   -3.2401   -2.1658 H   0  0  0  0  0  0  0  0  0  0  0  0
   -1.8289   -4.6016   -0.6442 H   0  0  0  0  0  0  0  0  0  0  0  0
   -2.4355   -3.7367    0.7833 H   0  0  0  0  0  0  0  0  0  0  0  0
   -0.7164   -2.5841   -1.4633 H   0  0  0  0  0  0  0  0  0  0  0  0
   -0.0695   -2.6187    1.5270 H   0  0  0  0  0  0  0  0  0  0  0  0
    0.5017   -3.8120    0.3898 H   0  0  0  0  0  0  0  0  0  0  0  0
    1.9630   -2.4427   -0.6932 H   0  0  0  0  0  0  0  0  0  0  0  0
    0.9733   -1.0134   -0.5463 H   0  0  0  0  0  0  0  0  0  0  0  0
    1.6450   -0.7200    1.8358 H   0  0  0  0  0  0  0  0  0  0  0  0
    2.4777   -2.2599    1.7993 H   0  0  0  0  0  0  0  0  0  0  0  0
    4.4773   -2.6497    0.2774 H   0  0  0  0  0  0  0  0  0  0  0  0
    5.3063   -1.2487   -0.5017 H   0  0  0  0  0  0  0  0  0  0  0  0
    5.4344   -0.0974    1.7570 H   0  0  0  0  0  0  0  0  0  0  0  0
    4.6021   -1.5077    2.5108 H   0  0  0  0  0  0  0  0  0  0  0  0
    5.4218    1.1095   -0.2828 H   0  0  0  0  0  0  0  0  0  0  0  0
    3.2702    4.8913   -2.2332 H   0  0  0  0  0  0  0  0  0  0  0  0
    0.7436    5.0601   -2.2967 H   0  0  0  0  0  0  0  0  0  0  0  0
    0.0087    1.4498    0.4799 H   0  0  0  0  0  0  0  0  0  0  0  0
   -2.6161    1.0935   -0.7548 H   0  0  0  0  0  0  0  0  0  0  0  0
   -2.2979    1.7826    2.2274 H   0  0  0  0  0  0  0  0  0  0  0  0
   -4.8064    1.6158    2.3088 H   0  0  0  0  0  0  0  0  0  0  0  0
   -4.8690    1.1886    0.5419 H   0  0  0  0  0  0  0  0  0  0  0  0
   -3.7433    3.3606   -0.0358 H   0  0  0  0  0  0  0  0  0  0  0  0
   -3.6930    3.8027    1.7264 H   0  0  0  0  0  0  0  0  0  0  0  0
   -3.2021   -0.9631   -1.8240 H   0  0  0  0  0  0  0  0  0  0  0  0
   -3.9161   -1.1007   -0.1984 H   0  0  0  0  0  0  0  0  0  0  0  0
  1  2  3  0
  2  3  1  0
  3  4  1  0
  4  5  1  0
  5  6  1  0
  6  7  1  0
  7  8  1  0
  8  9  1  0
  9 10  1  0
 10 11  1  0
  9 12  1  0
 12 13  2  0
 13 14  1  0
 14 15  2  0
 15 16  1  0
 16 17  1  0
 17 18  2  0
 18 19  1  0
 19 20  2  0
 18 21  1  0
 21 22  2  0
 21 23  1  0
 23 24  1  0
 24 25  1  0
 25 26  1  0
 26 27  1  0
 24 28  1  0
 28 29  2  0
 28 30  1  0
 30 31  1  0
 31  3  1  0
 30  5  1  0
 11  9  1  0
 20 12  1  0
 27 25  1  0
 19 15  1  0
  3 32  1  6
  4 33  1  0
  4 34  1  0
  5 35  1  0
  6 36  1  0
  6 37  1  0
  7 38  1  0
  7 39  1  0
  8 40  1  0
  8 41  1  0
 10 42  1  0
 10 43  1  0
 11 44  1  0
 11 45  1  0
 13 46  1  0
 16 47  1  0
 17 48  1  0
 23 49  1  0
 24 50  1  6
 25 51  1  0
 26 52  1  0
 26 53  1  0
 27 54  1  0
 27 55  1  0
 31 56  1  0
 31 57  1  0
M  END
>  <candidate_id>  (1) 
CAND_6f5c819abf

>  <source_generator>  (1) 
v5_3_model_guided_macrocycle

>  <parent_mol_id>  (1) 
JAK2_69b6c7ad6e

>  <canonical_smiles>  (1) 
N#C[C@@H]1CC2CCCC3(CC3)c3cnc4[nH]cc(c4n3)C(=O)N[C@H](C3CC3)C(=O)N2C1

>  <inchikey>  (1) 
SZNOMDJPNRVXHW-PLXAZLAVSA-N

>  <valid_rdkit>  (1) 
True

>  <unique_flag>  (1) 
True

>  <novel_flag>  (1) 
True

>  <mw>  (1) 
418.501

>  <logp>  (1) 
2.4225

>  <tpsa>  (1) 
114.77

>  <hbd>  (1) 
2

>  <hba>  (1) 
5

>  <rotatable_bonds>  (1) 
1

>  <qed>  (1) 
0.7381

>  <sa_score>  (1) 
4.656

>  <murcko_scaffold>  (1) 
O=C1N[C@H](C2CC2)C(=O)N2CCCC2CCCC2(CC2)c2cnc3[nH]cc1c3n2

>  <max_ring_size>  (1) 
14

>  <has_macrocycle_12_20>  (1) 
True

>  <has_constrained_ring_8_11>  (1) 
False

>  <passes_basic_filters>  (1) 
True

>  <generation_notes>  (1) 
v5_3_model_guided_anchor_pair=19-4;anchor_scores=0.691,0.079;linker_length=3;target_ring=13;linker_prob=0.234;chemotype=alkyl

$$$$
