CAND_206c165320
     RDKit          3D

 70 75  0  0  0  0  0  0  0  0999 V2000
    0.7513    2.6406    1.3471 C   0  0  0  0  0  0  0  0  0  0  0  0
   -0.0910    1.8739    0.6189 C   0  0  0  0  0  0  0  0  0  0  0  0
   -1.0626    2.4268   -0.4063 C   0  0  0  0  0  0  0  0  0  0  0  0
   -2.3160    1.6891   -0.5246 N   0  0  0  0  0  0  0  0  0  0  0  0
   -3.2269    1.8466    0.6177 C   0  0  0  0  0  0  0  0  0  0  0  0
   -4.4948    0.9435    0.5207 C   0  0  0  0  0  0  0  0  0  0  0  0
   -5.5192    1.4874   -0.4863 C   0  0  0  0  0  0  0  0  0  0  0  0
   -6.0984    0.2649   -1.1907 C   0  0  0  0  0  0  0  0  0  0  0  0
   -5.5507   -0.9251   -0.4258 C   0  0  0  0  0  0  0  0  0  0  0  0
   -4.2567   -0.4297    0.0333 N   0  0  0  0  0  0  0  0  0  0  0  0
   -3.6150   -1.3132    1.0111 C   0  0  0  0  0  0  0  0  0  0  0  0
   -2.7675   -2.3928    0.3144 C   0  0  0  0  0  0  0  0  0  0  0  0
   -1.9210   -3.0317    1.2924 O   0  0  0  0  0  0  0  0  0  0  0  0
   -0.6643   -3.2425    0.7836 C   0  0  0  0  0  0  0  0  0  0  0  0
   -0.4612   -4.2346   -0.1764 C   0  0  0  0  0  0  0  0  0  0  0  0
    0.8057   -4.4087   -0.7465 C   0  0  0  0  0  0  0  0  0  0  0  0
    1.8877   -3.6062   -0.3618 C   0  0  0  0  0  0  0  0  0  0  0  0
    1.6684   -2.6558    0.6424 C   0  0  0  0  0  0  0  0  0  0  0  0
    0.4065   -2.4653    1.2322 C   0  0  0  0  0  0  0  0  0  0  0  0
    0.2538   -1.3949    2.2834 C   0  0  0  0  0  0  0  0  0  0  0  0
    0.6908   -0.1064    1.8333 O   0  0  0  0  0  0  0  0  0  0  0  0
   -0.0664    0.3593    0.7119 C   0  0  0  0  0  0  0  0  0  0  0  0
    3.1045   -3.7110   -1.0453 N   0  0  0  0  0  0  0  0  0  0  0  0
    4.1286   -2.7849   -1.2352 C   0  0  0  0  0  0  0  0  0  0  0  0
    5.2481   -3.2468   -1.8146 N   0  0  0  0  0  0  0  0  0  0  0  0
    6.2468   -2.3634   -2.0100 C   0  0  0  0  0  0  0  0  0  0  0  0
    6.1712   -1.0368   -1.6666 C   0  0  0  0  0  0  0  0  0  0  0  0
    4.9778   -0.6467   -1.1096 C   0  0  0  0  0  0  0  0  0  0  0  0
    3.9646   -1.5031   -0.8874 N   0  0  0  0  0  0  0  0  0  0  0  0
    4.7283    0.7324   -0.6867 C   0  0  0  0  0  0  0  0  0  0  0  0
    5.4927    1.5521    0.1221 C   0  0  0  0  0  0  0  0  0  0  0  0
    4.8862    2.8256    0.3377 C   0  0  0  0  0  0  0  0  0  0  0  0
    3.6817    2.9556   -0.3250 C   0  0  0  0  0  0  0  0  0  0  0  0
    3.3160    1.5453   -1.2251 S   0  0  0  0  0  0  0  0  0  0  0  0
    2.7475    4.1268   -0.3417 C   0  0  0  0  0  0  0  0  0  0  0  0
    2.3492    4.3965    1.0056 O   0  0  0  0  0  0  0  0  0  0  0  0
    0.9711    4.1173    1.2643 C   0  0  0  0  0  0  0  0  0  0  0  0
    1.4267    2.1460    2.0456 H   0  0  0  0  0  0  0  0  0  0  0  0
   -1.2890    3.4832   -0.2324 H   0  0  0  0  0  0  0  0  0  0  0  0
   -0.5605    2.3720   -1.3803 H   0  0  0  0  0  0  0  0  0  0  0  0
   -2.7968    1.9304   -1.3875 H   0  0  0  0  0  0  0  0  0  0  0  0
   -3.5374    2.8949    0.7049 H   0  0  0  0  0  0  0  0  0  0  0  0
   -2.7046    1.5879    1.5457 H   0  0  0  0  0  0  0  0  0  0  0  0
   -4.9742    0.9116    1.5095 H   0  0  0  0  0  0  0  0  0  0  0  0
   -5.0795    2.1671   -1.2244 H   0  0  0  0  0  0  0  0  0  0  0  0
   -6.3083    2.0389    0.0376 H   0  0  0  0  0  0  0  0  0  0  0  0
   -7.1926    0.2783   -1.2035 H   0  0  0  0  0  0  0  0  0  0  0  0
   -5.7505    0.2422   -2.2308 H   0  0  0  0  0  0  0  0  0  0  0  0
   -6.2146   -1.1682    0.4133 H   0  0  0  0  0  0  0  0  0  0  0  0
   -5.4582   -1.8058   -1.0687 H   0  0  0  0  0  0  0  0  0  0  0  0
   -2.9541   -0.7429    1.6720 H   0  0  0  0  0  0  0  0  0  0  0  0
   -4.3420   -1.7801    1.6882 H   0  0  0  0  0  0  0  0  0  0  0  0
   -3.4145   -3.1562   -0.1329 H   0  0  0  0  0  0  0  0  0  0  0  0
   -2.1772   -1.9275   -0.4879 H   0  0  0  0  0  0  0  0  0  0  0  0
   -1.2896   -4.8559   -0.5034 H   0  0  0  0  0  0  0  0  0  0  0  0
    0.9305   -5.1560   -1.5258 H   0  0  0  0  0  0  0  0  0  0  0  0
    2.4861   -2.0195    0.9776 H   0  0  0  0  0  0  0  0  0  0  0  0
   -0.7711   -1.3120    2.6600 H   0  0  0  0  0  0  0  0  0  0  0  0
    0.8746   -1.6651    3.1455 H   0  0  0  0  0  0  0  0  0  0  0  0
    0.3693   -0.0469   -0.2078 H   0  0  0  0  0  0  0  0  0  0  0  0
   -1.0843   -0.0126    0.8079 H   0  0  0  0  0  0  0  0  0  0  0  0
    3.3240   -4.5851   -1.4949 H   0  0  0  0  0  0  0  0  0  0  0  0
    7.1415   -2.7729   -2.4701 H   0  0  0  0  0  0  0  0  0  0  0  0
    6.9879   -0.3516   -1.8414 H   0  0  0  0  0  0  0  0  0  0  0  0
    6.4267    1.2427    0.5747 H   0  0  0  0  0  0  0  0  0  0  0  0
    5.2994    3.6048    0.9673 H   0  0  0  0  0  0  0  0  0  0  0  0
    1.8895    3.9830   -1.0089 H   0  0  0  0  0  0  0  0  0  0  0  0
    3.2930    5.0069   -0.7006 H   0  0  0  0  0  0  0  0  0  0  0  0
    0.3492    4.6282    0.5244 H   0  0  0  0  0  0  0  0  0  0  0  0
    0.7339    4.5563    2.2392 H   0  0  0  0  0  0  0  0  0  0  0  0
  1  2  2  0
  2  3  1  0
  3  4  1  0
  4  5  1  0
  5  6  1  0
  6  7  1  0
  7  8  1  0
  8  9  1  0
  9 10  1  0
 10 11  1  0
 11 12  1  0
 12 13  1  0
 13 14  1  0
 14 15  2  0
 15 16  1  0
 16 17  2  0
 17 18  1  0
 18 19  2  0
 19 20  1  0
 20 21  1  0
 21 22  1  0
 17 23  1  0
 23 24  1  0
 24 25  1  0
 25 26  2  0
 26 27  1  0
 27 28  2  0
 28 29  1  0
 28 30  1  0
 30 31  2  0
 31 32  1  0
 32 33  2  0
 33 34  1  0
 33 35  1  0
 35 36  1  0
 36 37  1  0
 37  1  1  0
 22  2  1  0
 29 24  2  0
 34 30  1  0
 10  6  1  0
 19 14  1  0
  1 38  1  0
  3 39  1  0
  3 40  1  0
  4 41  1  0
  5 42  1  0
  5 43  1  0
  6 44  1  0
  7 45  1  0
  7 46  1  0
  8 47  1  0
  8 48  1  0
  9 49  1  0
  9 50  1  0
 11 51  1  0
 11 52  1  0
 12 53  1  0
 12 54  1  0
 15 55  1  0
 16 56  1  0
 18 57  1  0
 20 58  1  0
 20 59  1  0
 22 60  1  0
 22 61  1  0
 23 62  1  0
 26 63  1  0
 27 64  1  0
 31 65  1  0
 32 66  1  0
 35 67  1  0
 35 68  1  0
 37 69  1  0
 37 70  1  0
M  END
>  <candidate_id>  (1) 
CAND_206c165320

>  <source_generator>  (1) 
v5_3_model_guided_macrocycle

>  <parent_mol_id>  (1) 
JAK2_522c241c10

>  <canonical_smiles>  (1) 
C1=C2\CNCC3CCCN3CCOc3ccc(cc3COC2)Nc2nccc(n2)-c2ccc(s2)COC/1

>  <inchikey>  (1) 
QYOFYWOOYFUVBS-DNTJNYDQSA-N

>  <valid_rdkit>  (1) 
True

>  <unique_flag>  (1) 
True

>  <novel_flag>  (1) 
True

>  <mw>  (1) 
519.671

>  <logp>  (1) 
4.3683

>  <tpsa>  (1) 
80.77

>  <hbd>  (1) 
2

>  <hba>  (1) 
9

>  <rotatable_bonds>  (1) 
0

>  <qed>  (1) 
0.4241

>  <sa_score>  (1) 
4.593

>  <murcko_scaffold>  (1) 
C1=C2\CNCC3CCCN3CCOc3ccc(cc3COC2)Nc2nccc(n2)-c2ccc(s2)COC/1

>  <max_ring_size>  (1) 
18

>  <has_macrocycle_12_20>  (1) 
True

>  <has_constrained_ring_8_11>  (1) 
False

>  <passes_basic_filters>  (1) 
True

>  <generation_notes>  (1) 
v5_3_model_guided_anchor_pair=1-15;anchor_scores=0.312,0.079;linker_length=3;target_ring=13;linker_prob=0.455;chemotype=aza

$$$$
