CAND_76774df791
     RDKit          3D

 55 60  0  0  0  0  0  0  0  0999 V2000
   -0.4757    3.2862    4.4541 N   0  0  0  0  0  0  0  0  0  0  0  0
   -0.8630    3.1982    3.3644 C   0  0  0  0  0  0  0  0  0  0  0  0
   -1.3594    3.0827    1.9939 C   0  0  1  0  0  0  0  0  0  0  0  0
   -0.3726    3.6054    0.9561 C   0  0  0  0  0  0  0  0  0  0  0  0
   -0.8262    2.9196   -0.3420 C   0  0  0  0  0  0  0  0  0  0  0  0
    0.3103    2.9140   -1.4047 C   0  0  0  0  0  0  0  0  0  0  0  0
    1.5971    2.4490   -0.9570 O   0  0  0  0  0  0  0  0  0  0  0  0
    1.5686    1.0440   -0.7179 C   0  0  0  0  0  0  0  0  0  0  0  0
    2.9404    0.3879   -0.5396 C   0  0  0  0  0  0  0  0  0  0  0  0
    4.1098    1.2329   -0.0700 C   0  0  0  0  0  0  0  0  0  0  0  0
    4.0530    0.7620   -1.4977 C   0  0  0  0  0  0  0  0  0  0  0  0
    2.7833   -1.0653   -0.0587 C   0  0  0  0  0  0  0  0  0  0  0  0
    3.8157   -1.9441    0.2987 C   0  0  0  0  0  0  0  0  0  0  0  0
    3.6600   -3.2102    0.8063 N   0  0  0  0  0  0  0  0  0  0  0  0
    2.3524   -3.5078    0.9542 C   0  0  0  0  0  0  0  0  0  0  0  0
    1.7996   -4.6406    1.4881 N   0  0  0  0  0  0  0  0  0  0  0  0
    0.4230   -4.5141    1.5217 C   0  0  0  0  0  0  0  0  0  0  0  0
    0.0767   -3.2905    0.9646 C   0  0  0  0  0  0  0  0  0  0  0  0
    1.3015   -2.6841    0.6050 C   0  0  0  0  0  0  0  0  0  0  0  0
    1.5000   -1.4708    0.0587 N   0  0  0  0  0  0  0  0  0  0  0  0
   -1.2516   -2.6956    0.8349 C   0  0  0  0  0  0  0  0  0  0  0  0
   -2.2309   -3.1285    1.4312 O   0  0  0  0  0  0  0  0  0  0  0  0
   -1.2846   -1.5856    0.0192 N   0  0  0  0  0  0  0  0  0  0  0  0
   -2.4191   -0.6863   -0.1312 C   0  0  2  0  0  0  0  0  0  0  0  0
   -3.5129   -1.3906   -0.9042 C   0  0  0  0  0  0  0  0  0  0  0  0
   -4.4158   -0.7072   -1.9034 C   0  0  0  0  0  0  0  0  0  0  0  0
   -3.4043   -1.7208   -2.3732 C   0  0  0  0  0  0  0  0  0  0  0  0
   -1.8663    0.6510   -0.7441 C   0  0  0  0  0  0  0  0  0  0  0  0
   -1.7209    0.8015   -1.9599 O   0  0  0  0  0  0  0  0  0  0  0  0
   -1.3988    1.6337    0.1218 N   0  0  0  0  0  0  0  0  0  0  0  0
   -1.5509    1.6291    1.5741 C   0  0  0  0  0  0  0  0  0  0  0  0
   -2.3096    3.6219    1.8886 H   0  0  0  0  0  0  0  0  0  0  0  0
   -0.3940    4.6971    0.8710 H   0  0  0  0  0  0  0  0  0  0  0  0
    0.6511    3.3168    1.2261 H   0  0  0  0  0  0  0  0  0  0  0  0
   -1.6757    3.4684   -0.7704 H   0  0  0  0  0  0  0  0  0  0  0  0
    0.4744    3.9550   -1.7084 H   0  0  0  0  0  0  0  0  0  0  0  0
    0.0279    2.3812   -2.3176 H   0  0  0  0  0  0  0  0  0  0  0  0
    1.0575    0.5424   -1.5488 H   0  0  0  0  0  0  0  0  0  0  0  0
    1.0128    0.8982    0.2115 H   0  0  0  0  0  0  0  0  0  0  0  0
    4.8569    0.7998    0.5838 H   0  0  0  0  0  0  0  0  0  0  0  0
    3.9417    2.2887    0.1189 H   0  0  0  0  0  0  0  0  0  0  0  0
    4.7578    0.0034   -1.8163 H   0  0  0  0  0  0  0  0  0  0  0  0
    3.8416    1.5023   -2.2631 H   0  0  0  0  0  0  0  0  0  0  0  0
    4.8533   -1.6384    0.1973 H   0  0  0  0  0  0  0  0  0  0  0  0
    2.3364   -5.4214    1.8385 H   0  0  0  0  0  0  0  0  0  0  0  0
   -0.1923   -5.2967    1.9476 H   0  0  0  0  0  0  0  0  0  0  0  0
   -0.4202   -1.3252   -0.4491 H   0  0  0  0  0  0  0  0  0  0  0  0
   -2.8213   -0.5012    0.8668 H   0  0  0  0  0  0  0  0  0  0  0  0
   -3.9818   -2.1478   -0.2789 H   0  0  0  0  0  0  0  0  0  0  0  0
   -4.2480    0.3287   -2.1719 H   0  0  0  0  0  0  0  0  0  0  0  0
   -5.4614   -0.9958   -1.9209 H   0  0  0  0  0  0  0  0  0  0  0  0
   -3.7668   -2.6895   -2.6991 H   0  0  0  0  0  0  0  0  0  0  0  0
   -2.5476   -1.3664   -2.9344 H   0  0  0  0  0  0  0  0  0  0  0  0
   -0.7913    0.9555    1.9876 H   0  0  0  0  0  0  0  0  0  0  0  0
   -2.5398    1.2680    1.8688 H   0  0  0  0  0  0  0  0  0  0  0  0
  1  2  3  0
  2  3  1  0
  3  4  1  0
  4  5  1  0
  5  6  1  0
  6  7  1  0
  7  8  1  0
  8  9  1  0
  9 10  1  0
 10 11  1  0
  9 12  1  0
 12 13  2  0
 13 14  1  0
 14 15  2  0
 15 16  1  0
 16 17  1  0
 17 18  2  0
 18 19  1  0
 19 20  2  0
 18 21  1  0
 21 22  2  0
 21 23  1  0
 23 24  1  0
 24 25  1  0
 25 26  1  0
 26 27  1  0
 24 28  1  0
 28 29  2  0
 28 30  1  0
 30 31  1  0
 31  3  1  0
 30  5  1  0
 11  9  1  0
 20 12  1  0
 27 25  1  0
 19 15  1  0
  3 32  1  1
  4 33  1  0
  4 34  1  0
  5 35  1  0
  6 36  1  0
  6 37  1  0
  8 38  1  0
  8 39  1  0
 10 40  1  0
 10 41  1  0
 11 42  1  0
 11 43  1  0
 13 44  1  0
 16 45  1  0
 17 46  1  0
 23 47  1  0
 24 48  1  1
 25 49  1  0
 26 50  1  0
 26 51  1  0
 27 52  1  0
 27 53  1  0
 31 54  1  0
 31 55  1  0
M  END
>  <candidate_id>  (1) 
CAND_76774df791

>  <source_generator>  (1) 
v5_3_model_guided_macrocycle

>  <parent_mol_id>  (1) 
JAK2_9dcdbe0544

>  <canonical_smiles>  (1) 
N#C[C@H]1CC2COCC3(CC3)c3cnc4[nH]cc(c4n3)C(=O)N[C@H](C3CC3)C(=O)N2C1

>  <inchikey>  (1) 
CJARQMPCFPOYTL-ZYFOBHMOSA-N

>  <valid_rdkit>  (1) 
True

>  <unique_flag>  (1) 
True

>  <novel_flag>  (1) 
True

>  <mw>  (1) 
420.473

>  <logp>  (1) 
1.2688

>  <tpsa>  (1) 
124.0

>  <hbd>  (1) 
2

>  <hba>  (1) 
6

>  <rotatable_bonds>  (1) 
1

>  <qed>  (1) 
0.716

>  <sa_score>  (1) 
4.667

>  <murcko_scaffold>  (1) 
O=C1N[C@H](C2CC2)C(=O)N2CCCC2COCC2(CC2)c2cnc3[nH]cc1c3n2

>  <max_ring_size>  (1) 
14

>  <has_macrocycle_12_20>  (1) 
True

>  <has_constrained_ring_8_11>  (1) 
False

>  <passes_basic_filters>  (1) 
True

>  <generation_notes>  (1) 
v5_3_model_guided_anchor_pair=19-4;anchor_scores=0.691,0.079;linker_length=3;target_ring=13;linker_prob=0.234;chemotype=oxa

$$$$
