CAND_5fdf8771a8
     RDKit          3D

 66 70  0  0  0  0  0  0  0  0999 V2000
   -4.9717   -1.2261   -1.4960 C   0  0  0  0  0  0  0  0  0  0  0  0
   -4.4707   -0.7845   -0.1083 C   0  0  0  0  0  0  0  0  0  0  0  0
   -5.3245    0.4107    0.3622 C   0  0  0  0  0  0  0  0  0  0  0  0
   -4.7021   -1.9497    0.8787 C   0  0  0  0  0  0  0  0  0  0  0  0
   -2.9624   -0.3914   -0.0851 C   0  0  1  0  0  0  0  0  0  0  0  0
   -2.0796   -1.4719   -0.5144 N   0  0  0  0  0  0  0  0  0  0  0  0
   -0.8204   -1.6074    0.0317 C   0  0  0  0  0  0  0  0  0  0  0  0
   -0.4511   -0.9169    0.9767 O   0  0  0  0  0  0  0  0  0  0  0  0
    0.0359   -2.5767   -0.6357 C   0  0  0  0  0  0  0  0  0  0  0  0
   -0.3488   -3.6122   -1.4836 C   0  0  0  0  0  0  0  0  0  0  0  0
    0.7824   -4.2616   -1.9195 N   0  0  0  0  0  0  0  0  0  0  0  0
    1.8868   -3.6647   -1.3857 C   0  0  0  0  0  0  0  0  0  0  0  0
    3.1643   -4.0096   -1.6338 N   0  0  0  0  0  0  0  0  0  0  0  0
    4.0161   -3.1895   -0.9593 C   0  0  0  0  0  0  0  0  0  0  0  0
    3.6457   -2.1443   -0.1000 C   0  0  0  0  0  0  0  0  0  0  0  0
    2.3401   -1.8579    0.1147 N   0  0  0  0  0  0  0  0  0  0  0  0
    1.4564   -2.6346   -0.5591 C   0  0  0  0  0  0  0  0  0  0  0  0
    4.6800   -1.2534    0.5860 C   0  0  0  0  0  0  0  0  0  0  0  0
    4.7965    0.1454   -0.0085 C   0  0  0  0  0  0  0  0  0  0  0  0
    3.7221    1.1080    0.5209 C   0  0  0  0  0  0  0  0  0  0  0  0
    3.7377    2.4231   -0.2510 C   0  0  0  0  0  0  0  0  0  0  0  0
    2.7120    3.7095    0.5368 S   0  0  0  0  0  0  0  0  0  0  0  0
    1.0406    3.0195    0.2644 C   0  0  0  0  0  0  0  0  0  0  0  0
    0.0187    4.0812    0.6838 C   0  0  0  0  0  0  0  0  0  0  0  0
   -1.4559    3.6993    0.4517 C   0  0  0  0  0  0  0  0  0  0  0  0
   -2.3104    4.7889    0.9131 C   0  0  0  0  0  0  0  0  0  0  0  0
   -2.9963    5.6491    1.2816 N   0  0  0  0  0  0  0  0  0  0  0  0
   -1.8402    3.2244   -0.9738 C   0  0  0  0  0  0  0  0  0  0  0  0
   -2.1908    1.9466   -0.3889 N   0  0  0  0  0  0  0  0  0  0  0  0
   -1.9390    2.3230    0.9843 C   0  0  0  0  0  0  0  0  0  0  0  0
   -2.6139    0.8032   -1.0026 C   0  0  0  0  0  0  0  0  0  0  0  0
   -2.6704    0.7190   -2.2317 O   0  0  0  0  0  0  0  0  0  0  0  0
    5.9317   -1.8846    1.1839 C   0  0  0  0  0  0  0  0  0  0  0  0
    4.8479   -1.3983    2.0925 C   0  0  0  0  0  0  0  0  0  0  0  0
   -4.4027   -2.0767   -1.8842 H   0  0  0  0  0  0  0  0  0  0  0  0
   -6.0223   -1.5370   -1.4490 H   0  0  0  0  0  0  0  0  0  0  0  0
   -4.9152   -0.4151   -2.2282 H   0  0  0  0  0  0  0  0  0  0  0  0
   -5.2478    1.2580   -0.3277 H   0  0  0  0  0  0  0  0  0  0  0  0
   -6.3843    0.1385    0.4269 H   0  0  0  0  0  0  0  0  0  0  0  0
   -5.0110    0.7549    1.3541 H   0  0  0  0  0  0  0  0  0  0  0  0
   -5.7649   -2.2103    0.9420 H   0  0  0  0  0  0  0  0  0  0  0  0
   -4.3661   -1.6859    1.8880 H   0  0  0  0  0  0  0  0  0  0  0  0
   -4.1621   -2.8516    0.5701 H   0  0  0  0  0  0  0  0  0  0  0  0
   -2.7021   -0.1351    0.9476 H   0  0  0  0  0  0  0  0  0  0  0  0
   -2.2683   -1.9100   -1.4051 H   0  0  0  0  0  0  0  0  0  0  0  0
   -1.3229   -3.9489   -1.8125 H   0  0  0  0  0  0  0  0  0  0  0  0
    0.8203   -5.0481   -2.5524 H   0  0  0  0  0  0  0  0  0  0  0  0
    5.0671   -3.3983   -1.1382 H   0  0  0  0  0  0  0  0  0  0  0  0
    4.7312    0.0759   -1.1019 H   0  0  0  0  0  0  0  0  0  0  0  0
    5.7857    0.5670    0.2111 H   0  0  0  0  0  0  0  0  0  0  0  0
    2.7311    0.6519    0.4413 H   0  0  0  0  0  0  0  0  0  0  0  0
    3.9031    1.2911    1.5870 H   0  0  0  0  0  0  0  0  0  0  0  0
    4.7588    2.8174   -0.2920 H   0  0  0  0  0  0  0  0  0  0  0  0
    3.4048    2.2772   -1.2840 H   0  0  0  0  0  0  0  0  0  0  0  0
    0.9277    2.1120    0.8621 H   0  0  0  0  0  0  0  0  0  0  0  0
    0.9373    2.7619   -0.7922 H   0  0  0  0  0  0  0  0  0  0  0  0
    0.2249    5.0115    0.1351 H   0  0  0  0  0  0  0  0  0  0  0  0
    0.1610    4.3038    1.7512 H   0  0  0  0  0  0  0  0  0  0  0  0
   -2.7009    3.7180   -1.4384 H   0  0  0  0  0  0  0  0  0  0  0  0
   -1.0339    3.1589   -1.7084 H   0  0  0  0  0  0  0  0  0  0  0  0
   -2.8506    2.3284    1.5913 H   0  0  0  0  0  0  0  0  0  0  0  0
   -1.1869    1.7051    1.4795 H   0  0  0  0  0  0  0  0  0  0  0  0
    6.8605   -1.3246    1.1636 H   0  0  0  0  0  0  0  0  0  0  0  0
    6.0785   -2.9577    1.1276 H   0  0  0  0  0  0  0  0  0  0  0  0
    4.2361   -2.1331    2.6063 H   0  0  0  0  0  0  0  0  0  0  0  0
    5.0468   -0.5147    2.6882 H   0  0  0  0  0  0  0  0  0  0  0  0
  1  2  1  0
  2  3  1  0
  2  4  1  0
  2  5  1  0
  5  6  1  0
  6  7  1  0
  7  8  2  0
  7  9  1  0
  9 10  2  0
 10 11  1  0
 11 12  1  0
 12 13  2  0
 13 14  1  0
 14 15  2  0
 15 16  1  0
 16 17  2  0
 15 18  1  0
 18 19  1  0
 19 20  1  0
 20 21  1  0
 21 22  1  0
 22 23  1  0
 23 24  1  0
 24 25  1  0
 25 26  1  0
 26 27  3  0
 25 28  1  0
 28 29  1  0
 29 30  1  0
 29 31  1  0
 31 32  2  0
 18 33  1  0
 33 34  1  0
 31  5  1  0
 17  9  1  0
 34 18  1  0
 17 12  1  0
 30 25  1  0
  1 35  1  0
  1 36  1  0
  1 37  1  0
  3 38  1  0
  3 39  1  0
  3 40  1  0
  4 41  1  0
  4 42  1  0
  4 43  1  0
  5 44  1  1
  6 45  1  0
 10 46  1  0
 11 47  1  0
 14 48  1  0
 19 49  1  0
 19 50  1  0
 20 51  1  0
 20 52  1  0
 21 53  1  0
 21 54  1  0
 23 55  1  0
 23 56  1  0
 24 57  1  0
 24 58  1  0
 28 59  1  0
 28 60  1  0
 30 61  1  0
 30 62  1  0
 33 63  1  0
 33 64  1  0
 34 65  1  0
 34 66  1  0
M  END
>  <candidate_id>  (1) 
CAND_5fdf8771a8

>  <source_generator>  (1) 
v5_3_model_guided_macrocycle

>  <parent_mol_id>  (1) 
JAK2_1a53985c87

>  <canonical_smiles>  (1) 
CC(C)(C)[C@H]1NC(=O)c2c[nH]c3ncc(nc23)C2(CCCSCCC3(C#N)CN(C3)C1=O)CC2

>  <inchikey>  (1) 
IAHQBZMCPQJZNV-IBGZPJMESA-N

>  <valid_rdkit>  (1) 
True

>  <unique_flag>  (1) 
True

>  <novel_flag>  (1) 
True

>  <mw>  (1) 
480.638

>  <logp>  (1) 
3.4033

>  <tpsa>  (1) 
114.77

>  <hbd>  (1) 
2

>  <hba>  (1) 
6

>  <rotatable_bonds>  (1) 
0

>  <qed>  (1) 
0.5972

>  <sa_score>  (1) 
4.376

>  <murcko_scaffold>  (1) 
O=C1NCC(=O)N2CC(CCSCCCC3(CC3)c3cnc4[nH]cc1c4n3)C2

>  <max_ring_size>  (1) 
18

>  <has_macrocycle_12_20>  (1) 
True

>  <has_constrained_ring_8_11>  (1) 
False

>  <passes_basic_filters>  (1) 
True

>  <generation_notes>  (1) 
v5_3_model_guided_anchor_pair=15-24;anchor_scores=0.691,0.691;linker_length=6;target_ring=17;linker_prob=0.248;chemotype=thioether

$$$$
