CAND_6c9b69bfe2
     RDKit          3D

 55 60  0  0  0  0  0  0  0  0999 V2000
    5.9547   -2.1271    1.8147 N   0  0  0  0  0  0  0  0  0  0  0  0
    5.4620   -1.0839    1.9391 C   0  0  0  0  0  0  0  0  0  0  0  0
    4.8610    0.2511    2.0840 C   0  0  1  0  0  0  0  0  0  0  0  0
    5.0283    1.0772    0.8063 C   0  0  0  0  0  0  0  0  0  0  0  0
    3.8653    0.6310   -0.0749 C   0  0  0  0  0  0  0  0  0  0  0  0
    2.8331    0.2239    0.8640 N   0  0  0  0  0  0  0  0  0  0  0  0
    1.4949   -0.0073    0.6025 C   0  0  0  0  0  0  0  0  0  0  0  0
    0.6974   -0.1479    1.5351 O   0  0  0  0  0  0  0  0  0  0  0  0
    1.0422   -0.0505   -0.8821 C   0  0  2  0  0  0  0  0  0  0  0  0
   -0.1091    0.8173   -0.9818 N   0  0  0  0  0  0  0  0  0  0  0  0
   -0.1019    2.1572   -1.2858 C   0  0  0  0  0  0  0  0  0  0  0  0
    0.8937    2.7691   -1.6556 O   0  0  0  0  0  0  0  0  0  0  0  0
   -1.4098    2.7849   -1.0927 C   0  0  0  0  0  0  0  0  0  0  0  0
   -1.7773    4.1156   -1.2322 C   0  0  0  0  0  0  0  0  0  0  0  0
   -3.1134    4.2411   -0.8900 N   0  0  0  0  0  0  0  0  0  0  0  0
   -3.6157    3.0198   -0.5259 C   0  0  0  0  0  0  0  0  0  0  0  0
   -4.8583    2.7190   -0.0891 N   0  0  0  0  0  0  0  0  0  0  0  0
   -4.9546    1.3825    0.2146 C   0  0  0  0  0  0  0  0  0  0  0  0
   -3.9328    0.4368    0.0749 C   0  0  0  0  0  0  0  0  0  0  0  0
   -2.7351    0.8046   -0.4084 N   0  0  0  0  0  0  0  0  0  0  0  0
   -2.5842    2.1161   -0.6768 C   0  0  0  0  0  0  0  0  0  0  0  0
   -4.0273   -1.0287    0.4146 C   0  0  0  0  0  0  0  0  0  0  0  0
   -4.2129   -1.5941    1.7955 C   0  0  0  0  0  0  0  0  0  0  0  0
   -2.8252   -1.5589    1.2103 C   0  0  0  0  0  0  0  0  0  0  0  0
   -2.0786   -2.7673    0.7437 C   0  0  0  0  0  0  0  0  0  0  0  0
   -0.7576   -2.3967    0.3257 O   0  0  0  0  0  0  0  0  0  0  0  0
   -0.6729   -2.0518   -1.0520 C   0  0  0  0  0  0  0  0  0  0  0  0
    0.7055   -1.4744   -1.3766 C   0  0  0  0  0  0  0  0  0  0  0  0
    1.2867   -1.8678   -2.7303 C   0  0  0  0  0  0  0  0  0  0  0  0
    1.8493   -2.4729   -1.4809 C   0  0  0  0  0  0  0  0  0  0  0  0
    3.3451    0.1632    2.2245 C   0  0  0  0  0  0  0  0  0  0  0  0
    5.3105    0.7528    2.9475 H   0  0  0  0  0  0  0  0  0  0  0  0
    5.9956    0.9496    0.3103 H   0  0  0  0  0  0  0  0  0  0  0  0
    4.9098    2.1415    1.0468 H   0  0  0  0  0  0  0  0  0  0  0  0
    4.1329   -0.2334   -0.6900 H   0  0  0  0  0  0  0  0  0  0  0  0
    3.5133    1.4397   -0.7210 H   0  0  0  0  0  0  0  0  0  0  0  0
    1.8188    0.3759   -1.5206 H   0  0  0  0  0  0  0  0  0  0  0  0
   -0.9509    0.4639   -0.5316 H   0  0  0  0  0  0  0  0  0  0  0  0
   -1.2003    4.9825   -1.5276 H   0  0  0  0  0  0  0  0  0  0  0  0
   -3.6480    5.0980   -0.8791 H   0  0  0  0  0  0  0  0  0  0  0  0
   -5.9256    1.0791    0.5958 H   0  0  0  0  0  0  0  0  0  0  0  0
   -4.3921   -1.6533   -0.3976 H   0  0  0  0  0  0  0  0  0  0  0  0
   -4.4293   -0.9124    2.6111 H   0  0  0  0  0  0  0  0  0  0  0  0
   -4.7022   -2.5570    1.8909 H   0  0  0  0  0  0  0  0  0  0  0  0
   -2.1444   -0.8561    1.6869 H   0  0  0  0  0  0  0  0  0  0  0  0
   -1.9556   -3.4471    1.5933 H   0  0  0  0  0  0  0  0  0  0  0  0
   -2.6020   -3.3184   -0.0461 H   0  0  0  0  0  0  0  0  0  0  0  0
   -1.4687   -1.3618   -1.3428 H   0  0  0  0  0  0  0  0  0  0  0  0
   -0.8366   -2.9704   -1.6302 H   0  0  0  0  0  0  0  0  0  0  0  0
    0.7057   -2.5077   -3.3861 H   0  0  0  0  0  0  0  0  0  0  0  0
    1.8985   -1.1523   -3.2694 H   0  0  0  0  0  0  0  0  0  0  0  0
    1.6362   -3.5167   -1.2718 H   0  0  0  0  0  0  0  0  0  0  0  0
    2.8432   -2.1753   -1.1698 H   0  0  0  0  0  0  0  0  0  0  0  0
    2.9874   -0.7401    2.7307 H   0  0  0  0  0  0  0  0  0  0  0  0
    2.9512    1.0378    2.7560 H   0  0  0  0  0  0  0  0  0  0  0  0
  1  2  3  0
  2  3  1  0
  3  4  1  0
  4  5  1  0
  5  6  1  0
  6  7  1  0
  7  8  2  0
  7  9  1  0
  9 10  1  0
 10 11  1  0
 11 12  2  0
 11 13  1  0
 13 14  2  0
 14 15  1  0
 15 16  1  0
 16 17  2  0
 17 18  1  0
 18 19  2  0
 19 20  1  0
 20 21  2  0
 19 22  1  0
 22 23  1  0
 23 24  1  0
 24 25  1  0
 25 26  1  0
 26 27  1  0
 27 28  1  0
 28 29  1  0
 29 30  1  0
  6 31  1  0
 31  3  1  0
 28  9  1  0
 21 13  1  0
 24 22  1  0
 30 28  1  0
 21 16  1  0
  3 32  1  1
  4 33  1  0
  4 34  1  0
  5 35  1  0
  5 36  1  0
  9 37  1  6
 10 38  1  0
 14 39  1  0
 15 40  1  0
 18 41  1  0
 22 42  1  0
 23 43  1  0
 23 44  1  0
 24 45  1  0
 25 46  1  0
 25 47  1  0
 27 48  1  0
 27 49  1  0
 29 50  1  0
 29 51  1  0
 30 52  1  0
 30 53  1  0
 31 54  1  0
 31 55  1  0
M  END
>  <candidate_id>  (1) 
CAND_6c9b69bfe2

>  <source_generator>  (1) 
v5_3_model_guided_macrocycle

>  <parent_mol_id>  (1) 
JAK2_9dcdbe0544

>  <canonical_smiles>  (1) 
N#C[C@H]1CCN(C(=O)[C@@H]2NC(=O)c3c[nH]c4ncc(nc34)C3CC3COCC23CC3)C1

>  <inchikey>  (1) 
RGFMCTZPJBFCLO-XILSRCRHSA-N

>  <valid_rdkit>  (1) 
True

>  <unique_flag>  (1) 
True

>  <novel_flag>  (1) 
True

>  <mw>  (1) 
420.473

>  <logp>  (1) 
1.3423

>  <tpsa>  (1) 
124.0

>  <hbd>  (1) 
2

>  <hba>  (1) 
6

>  <rotatable_bonds>  (1) 
1

>  <qed>  (1) 
0.7175

>  <sa_score>  (1) 
4.917

>  <murcko_scaffold>  (1) 
O=C1N[C@@H](C(=O)N2CCCC2)C2(CC2)COCC2CC2c2cnc3[nH]cc1c3n2

>  <max_ring_size>  (1) 
13

>  <has_macrocycle_12_20>  (1) 
True

>  <has_constrained_ring_8_11>  (1) 
False

>  <passes_basic_filters>  (1) 
True

>  <generation_notes>  (1) 
v5_3_model_guided_anchor_pair=24-20;anchor_scores=0.691,0.079;linker_length=3;target_ring=12;linker_prob=0.278;chemotype=oxa

$$$$
