CAND_67e4c4c09b
     RDKit          3D

 61 66  0  0  0  0  0  0  0  0999 V2000
    2.2231    3.5824    3.1123 N   0  0  0  0  0  0  0  0  0  0  0  0
    1.9583    2.9801    2.1566 C   0  0  0  0  0  0  0  0  0  0  0  0
    1.6372    2.2107    0.9689 C   0  0  0  0  0  0  0  0  0  0  0  0
    0.1992    2.4589    0.4722 C   0  0  0  0  0  0  0  0  0  0  0  0
   -0.0442    3.9085    0.0276 C   0  0  0  0  0  0  0  0  0  0  0  0
   -1.4209    4.1308   -0.6123 C   0  0  0  0  0  0  0  0  0  0  0  0
   -2.7803    4.1332    0.6114 S   0  0  0  0  0  0  0  0  0  0  0  0
   -3.8579    2.8240   -0.0857 C   0  0  0  0  0  0  0  0  0  0  0  0
   -3.2665    1.4490    0.1904 C   0  0  0  0  0  0  0  0  0  0  0  0
   -3.9966    0.2256   -0.3579 C   0  0  0  0  0  0  0  0  0  0  0  0
   -5.4780    0.2640   -0.6978 C   0  0  0  0  0  0  0  0  0  0  0  0
   -4.4681    0.2480   -1.8063 C   0  0  0  0  0  0  0  0  0  0  0  0
   -3.3292   -1.0720    0.1114 C   0  0  0  0  0  0  0  0  0  0  0  0
   -3.9626   -1.9834    0.9678 C   0  0  0  0  0  0  0  0  0  0  0  0
   -3.3985   -3.1056    1.4939 N   0  0  0  0  0  0  0  0  0  0  0  0
   -2.1163   -3.2187    1.0988 C   0  0  0  0  0  0  0  0  0  0  0  0
   -1.2449   -4.1973    1.4832 N   0  0  0  0  0  0  0  0  0  0  0  0
   -0.0035   -3.9462    0.9462 C   0  0  0  0  0  0  0  0  0  0  0  0
   -0.0929   -2.8039    0.1573 C   0  0  0  0  0  0  0  0  0  0  0  0
   -1.4360   -2.3519    0.2532 C   0  0  0  0  0  0  0  0  0  0  0  0
   -2.0395   -1.2572   -0.2699 N   0  0  0  0  0  0  0  0  0  0  0  0
    0.9760   -2.1766   -0.5978 C   0  0  0  0  0  0  0  0  0  0  0  0
    0.8213   -1.6951   -1.7130 O   0  0  0  0  0  0  0  0  0  0  0  0
    2.1760   -2.1218    0.0747 N   0  0  0  0  0  0  0  0  0  0  0  0
    3.3653   -1.6065   -0.5788 C   0  0  2  0  0  0  0  0  0  0  0  0
    4.5530   -1.9782    0.2817 C   0  0  0  0  0  0  0  0  0  0  0  0
    5.0298   -3.4099    0.3534 C   0  0  0  0  0  0  0  0  0  0  0  0
    5.8631   -2.3764   -0.3516 C   0  0  0  0  0  0  0  0  0  0  0  0
    3.3878   -0.0841   -0.8961 C   0  0  0  0  0  0  0  0  0  0  0  0
    4.1286    0.3548   -1.7840 O   0  0  0  0  0  0  0  0  0  0  0  0
    2.7243    0.7853   -0.0766 N   0  0  0  0  0  0  0  0  0  0  0  0
    2.7342    2.2375   -0.1217 C   0  0  0  0  0  0  0  0  0  0  0  0
    1.9472    0.6949    1.1363 C   0  0  0  0  0  0  0  0  0  0  0  0
   -0.0078    1.7950   -0.3772 H   0  0  0  0  0  0  0  0  0  0  0  0
   -0.5072    2.1880    1.2664 H   0  0  0  0  0  0  0  0  0  0  0  0
    0.7135    4.1811   -0.7170 H   0  0  0  0  0  0  0  0  0  0  0  0
    0.0978    4.6002    0.8667 H   0  0  0  0  0  0  0  0  0  0  0  0
   -1.4307    5.1181   -1.0866 H   0  0  0  0  0  0  0  0  0  0  0  0
   -1.6016    3.3960   -1.4031 H   0  0  0  0  0  0  0  0  0  0  0  0
   -4.8343    2.9182    0.3996 H   0  0  0  0  0  0  0  0  0  0  0  0
   -4.0021    3.0149   -1.1525 H   0  0  0  0  0  0  0  0  0  0  0  0
   -2.2571    1.4113   -0.2294 H   0  0  0  0  0  0  0  0  0  0  0  0
   -3.1684    1.3214    1.2773 H   0  0  0  0  0  0  0  0  0  0  0  0
   -6.0837   -0.6278   -0.5747 H   0  0  0  0  0  0  0  0  0  0  0  0
   -6.0434    1.1753   -0.5434 H   0  0  0  0  0  0  0  0  0  0  0  0
   -4.3673   -0.6605   -2.3935 H   0  0  0  0  0  0  0  0  0  0  0  0
   -4.3324    1.1449   -2.3979 H   0  0  0  0  0  0  0  0  0  0  0  0
   -4.9877   -1.8127    1.2837 H   0  0  0  0  0  0  0  0  0  0  0  0
   -1.4950   -4.9623    2.0942 H   0  0  0  0  0  0  0  0  0  0  0  0
    0.8242   -4.6131    1.1498 H   0  0  0  0  0  0  0  0  0  0  0  0
    2.2538   -2.5371    0.9912 H   0  0  0  0  0  0  0  0  0  0  0  0
    3.4304   -2.1160   -1.5499 H   0  0  0  0  0  0  0  0  0  0  0  0
    4.6050   -1.3850    1.1890 H   0  0  0  0  0  0  0  0  0  0  0  0
    5.3892   -3.7820    1.3063 H   0  0  0  0  0  0  0  0  0  0  0  0
    4.5375   -4.1582   -0.2583 H   0  0  0  0  0  0  0  0  0  0  0  0
    6.7785   -2.0437    0.1256 H   0  0  0  0  0  0  0  0  0  0  0  0
    5.9255   -2.4183   -1.4341 H   0  0  0  0  0  0  0  0  0  0  0  0
    2.4420    2.6383   -1.0962 H   0  0  0  0  0  0  0  0  0  0  0  0
    3.7046    2.6537    0.1694 H   0  0  0  0  0  0  0  0  0  0  0  0
    1.0702    0.0471    1.0814 H   0  0  0  0  0  0  0  0  0  0  0  0
    2.5580    0.4101    1.9996 H   0  0  0  0  0  0  0  0  0  0  0  0
  1  2  3  0
  2  3  1  0
  3  4  1  0
  4  5  1  0
  5  6  1  0
  6  7  1  0
  7  8  1  0
  8  9  1  0
  9 10  1  0
 10 11  1  0
 11 12  1  0
 10 13  1  0
 13 14  2  0
 14 15  1  0
 15 16  2  0
 16 17  1  0
 17 18  1  0
 18 19  2  0
 19 20  1  0
 20 21  2  0
 19 22  1  0
 22 23  2  0
 22 24  1  0
 24 25  1  0
 25 26  1  0
 26 27  1  0
 27 28  1  0
 25 29  1  0
 29 30  2  0
 29 31  1  0
 31 32  1  0
 31 33  1  0
 32  3  1  0
 33  3  1  0
 12 10  1  0
 21 13  1  0
 28 26  1  0
 20 16  1  0
  4 34  1  0
  4 35  1  0
  5 36  1  0
  5 37  1  0
  6 38  1  0
  6 39  1  0
  8 40  1  0
  8 41  1  0
  9 42  1  0
  9 43  1  0
 11 44  1  0
 11 45  1  0
 12 46  1  0
 12 47  1  0
 14 48  1  0
 17 49  1  0
 18 50  1  0
 24 51  1  0
 25 52  1  6
 26 53  1  0
 27 54  1  0
 27 55  1  0
 28 56  1  0
 28 57  1  0
 32 58  1  0
 32 59  1  0
 33 60  1  0
 33 61  1  0
M  END
>  <candidate_id>  (1) 
CAND_67e4c4c09b

>  <source_generator>  (1) 
v5_3_model_guided_macrocycle

>  <parent_mol_id>  (1) 
JAK2_c385760536

>  <canonical_smiles>  (1) 
N#CC12CCCSCCC3(CC3)c3cnc4[nH]cc(c4n3)C(=O)N[C@H](C3CC3)C(=O)N(C1)C2

>  <inchikey>  (1) 
BVIHMRVZUSIGAB-GOSISDBHSA-N

>  <valid_rdkit>  (1) 
True

>  <unique_flag>  (1) 
True

>  <novel_flag>  (1) 
True

>  <mw>  (1) 
464.595

>  <logp>  (1) 
2.7672

>  <tpsa>  (1) 
114.77

>  <hbd>  (1) 
2

>  <hba>  (1) 
6

>  <rotatable_bonds>  (1) 
1

>  <qed>  (1) 
0.6707

>  <sa_score>  (1) 
4.412

>  <murcko_scaffold>  (1) 
O=C1N[C@H](C2CC2)C(=O)N2CC(CCCSCCC3(CC3)c3cnc4[nH]cc1c4n3)C2

>  <max_ring_size>  (1) 
18

>  <has_macrocycle_12_20>  (1) 
True

>  <has_constrained_ring_8_11>  (1) 
False

>  <passes_basic_filters>  (1) 
True

>  <generation_notes>  (1) 
v5_3_model_guided_anchor_pair=2-18;anchor_scores=0.691,0.691;linker_length=6;target_ring=17;linker_prob=0.209;chemotype=thioether

$$$$
