CAND_ee723190bd
     RDKit          3D

 76 81  0  0  0  0  0  0  0  0999 V2000
    7.1078   -1.3363    0.7202 C   0  0  0  0  0  0  0  0  0  0  0  0
    5.7618   -1.4631    1.3543 C   0  0  0  0  0  0  0  0  0  0  0  0
    5.5992   -2.1656    2.5285 C   0  0  0  0  0  0  0  0  0  0  0  0
    4.4185   -2.3375    3.1497 N   0  0  0  0  0  0  0  0  0  0  0  0
    3.3464   -1.7539    2.5952 C   0  0  0  0  0  0  0  0  0  0  0  0
    3.4000   -1.0508    1.4583 N   0  0  0  0  0  0  0  0  0  0  0  0
    4.5911   -0.9436    0.8241 C   0  0  0  0  0  0  0  0  0  0  0  0
    4.5147   -0.2629   -0.4792 C   0  0  0  0  0  0  0  0  0  0  0  0
    4.8911   -0.9150   -1.6661 C   0  0  0  0  0  0  0  0  0  0  0  0
    4.7826   -0.2790   -2.9041 C   0  0  0  0  0  0  0  0  0  0  0  0
    4.2847    1.0194   -2.9778 C   0  0  0  0  0  0  0  0  0  0  0  0
    3.8965    1.6953   -1.8153 C   0  0  0  0  0  0  0  0  0  0  0  0
    4.0119    1.0453   -0.5756 C   0  0  0  0  0  0  0  0  0  0  0  0
    3.3110    3.0814   -1.9052 C   0  0  0  0  0  0  0  0  0  0  0  0
    1.9926    3.0547   -2.4512 O   0  0  0  0  0  0  0  0  0  0  0  0
    1.0171    2.6861   -1.4707 C   0  0  0  0  0  0  0  0  0  0  0  0
   -0.3371    2.8168   -2.0957 C   0  0  0  0  0  0  0  0  0  0  0  0
   -1.5135    2.4234   -1.5560 C   0  0  0  0  0  0  0  0  0  0  0  0
   -2.8057    2.6545   -2.3339 C   0  0  0  0  0  0  0  0  0  0  0  0
   -3.5050    1.4251   -2.7248 N   0  0  0  0  0  0  0  0  0  0  0  0
   -4.4530    0.9833   -1.7029 C   0  0  0  0  0  0  0  0  0  0  0  0
   -5.0049   -0.4554   -1.8477 C   0  0  0  0  0  0  0  0  0  0  0  0
   -3.9840   -1.5455   -2.2062 C   0  0  0  0  0  0  0  0  0  0  0  0
   -3.5015   -2.1147   -0.8753 C   0  0  0  0  0  0  0  0  0  0  0  0
   -4.1935   -1.3099    0.1272 N   0  0  0  0  0  0  0  0  0  0  0  0
   -4.2475   -1.9225    1.4488 C   0  0  0  0  0  0  0  0  0  0  0  0
   -4.1900   -0.8765    2.5853 C   0  0  0  0  0  0  0  0  0  0  0  0
   -3.0465   -0.0068    2.5416 O   0  0  0  0  0  0  0  0  0  0  0  0
   -1.7979   -0.5145    2.7809 C   0  0  0  0  0  0  0  0  0  0  0  0
   -1.5491   -1.7690    3.3383 C   0  0  0  0  0  0  0  0  0  0  0  0
   -0.2379   -2.2305    3.5012 C   0  0  0  0  0  0  0  0  0  0  0  0
    0.8606   -1.4605    3.1059 C   0  0  0  0  0  0  0  0  0  0  0  0
    0.6060   -0.2010    2.5579 C   0  0  0  0  0  0  0  0  0  0  0  0
   -0.7068    0.3073    2.4459 C   0  0  0  0  0  0  0  0  0  0  0  0
   -0.8851    1.7540    2.0442 C   0  0  0  0  0  0  0  0  0  0  0  0
   -0.5662    2.0139    0.6775 O   0  0  0  0  0  0  0  0  0  0  0  0
   -1.6898    1.8110   -0.1752 C   0  0  0  0  0  0  0  0  0  0  0  0
    2.1417   -1.9972    3.2449 N   0  0  0  0  0  0  0  0  0  0  0  0
   -5.4778   -0.9364   -0.4670 C   0  0  0  0  0  0  0  0  0  0  0  0
    7.2514   -0.3395    0.2910 H   0  0  0  0  0  0  0  0  0  0  0  0
    7.9043   -1.4767    1.4595 H   0  0  0  0  0  0  0  0  0  0  0  0
    7.2347   -2.0906   -0.0622 H   0  0  0  0  0  0  0  0  0  0  0  0
    6.4424   -2.6378    3.0261 H   0  0  0  0  0  0  0  0  0  0  0  0
    5.2457   -1.9430   -1.6365 H   0  0  0  0  0  0  0  0  0  0  0  0
    5.0640   -0.8044   -3.8128 H   0  0  0  0  0  0  0  0  0  0  0  0
    4.1743    1.4990   -3.9483 H   0  0  0  0  0  0  0  0  0  0  0  0
    3.6800    1.5506    0.3308 H   0  0  0  0  0  0  0  0  0  0  0  0
    3.3258    3.5966   -0.9368 H   0  0  0  0  0  0  0  0  0  0  0  0
    3.9334    3.6810   -2.5797 H   0  0  0  0  0  0  0  0  0  0  0  0
    1.0992    3.3743   -0.6227 H   0  0  0  0  0  0  0  0  0  0  0  0
    1.1913    1.6521   -1.1581 H   0  0  0  0  0  0  0  0  0  0  0  0
   -0.3368    3.2702   -3.0850 H   0  0  0  0  0  0  0  0  0  0  0  0
   -3.4644    3.3269   -1.7690 H   0  0  0  0  0  0  0  0  0  0  0  0
   -2.5826    3.1916   -3.2642 H   0  0  0  0  0  0  0  0  0  0  0  0
   -2.7943    0.7184   -2.8996 H   0  0  0  0  0  0  0  0  0  0  0  0
   -5.3139    1.6652   -1.7213 H   0  0  0  0  0  0  0  0  0  0  0  0
   -4.0298    1.0993   -0.7059 H   0  0  0  0  0  0  0  0  0  0  0  0
   -5.8229   -0.4514   -2.5773 H   0  0  0  0  0  0  0  0  0  0  0  0
   -3.1562   -1.2110   -2.8333 H   0  0  0  0  0  0  0  0  0  0  0  0
   -4.4959   -2.3407   -2.7640 H   0  0  0  0  0  0  0  0  0  0  0  0
   -3.7655   -3.1773   -0.8095 H   0  0  0  0  0  0  0  0  0  0  0  0
   -2.4158   -2.0177   -0.7720 H   0  0  0  0  0  0  0  0  0  0  0  0
   -5.1449   -2.5432    1.5602 H   0  0  0  0  0  0  0  0  0  0  0  0
   -3.3946   -2.5999    1.5613 H   0  0  0  0  0  0  0  0  0  0  0  0
   -5.0685   -0.2248    2.5082 H   0  0  0  0  0  0  0  0  0  0  0  0
   -4.2648   -1.3564    3.5681 H   0  0  0  0  0  0  0  0  0  0  0  0
   -2.3512   -2.4220    3.6624 H   0  0  0  0  0  0  0  0  0  0  0  0
   -0.0833   -3.2202    3.9245 H   0  0  0  0  0  0  0  0  0  0  0  0
    1.4371    0.4327    2.2541 H   0  0  0  0  0  0  0  0  0  0  0  0
   -0.1851    2.3494    2.6443 H   0  0  0  0  0  0  0  0  0  0  0  0
   -1.8754    2.1448    2.3069 H   0  0  0  0  0  0  0  0  0  0  0  0
   -1.8625    0.7345   -0.2716 H   0  0  0  0  0  0  0  0  0  0  0  0
   -2.5593    2.2895    0.2898 H   0  0  0  0  0  0  0  0  0  0  0  0
    2.2791   -2.6922    3.9623 H   0  0  0  0  0  0  0  0  0  0  0  0
   -6.1478   -1.8002   -0.5620 H   0  0  0  0  0  0  0  0  0  0  0  0
   -5.9897   -0.1505    0.0978 H   0  0  0  0  0  0  0  0  0  0  0  0
  1  2  1  0
  2  3  2  0
  3  4  1  0
  4  5  2  0
  5  6  1  0
  6  7  2  0
  7  8  1  0
  8  9  2  0
  9 10  1  0
 10 11  2  0
 11 12  1  0
 12 13  2  0
 12 14  1  0
 14 15  1  0
 15 16  1  0
 16 17  1  0
 17 18  2  3
 18 19  1  0
 19 20  1  0
 20 21  1  0
 21 22  1  0
 22 23  1  0
 23 24  1  0
 24 25  1  0
 25 26  1  0
 26 27  1  0
 27 28  1  0
 28 29  1  0
 29 30  2  0
 30 31  1  0
 31 32  2  0
 32 33  1  0
 33 34  2  0
 34 35  1  0
 35 36  1  0
 36 37  1  0
 32 38  1  0
 25 39  1  0
  7  2  1  0
 13  8  1  0
 37 18  1  0
 38  5  1  0
 39 22  1  0
 34 29  1  0
  1 40  1  0
  1 41  1  0
  1 42  1  0
  3 43  1  0
  9 44  1  0
 10 45  1  0
 11 46  1  0
 13 47  1  0
 14 48  1  0
 14 49  1  0
 16 50  1  0
 16 51  1  0
 17 52  1  0
 19 53  1  0
 19 54  1  0
 20 55  1  0
 21 56  1  0
 21 57  1  0
 22 58  1  0
 23 59  1  0
 23 60  1  0
 24 61  1  0
 24 62  1  0
 26 63  1  0
 26 64  1  0
 27 65  1  0
 27 66  1  0
 30 67  1  0
 31 68  1  0
 33 69  1  0
 35 70  1  0
 35 71  1  0
 37 72  1  0
 37 73  1  0
 38 74  1  0
 39 75  1  0
 39 76  1  0
M  END
>  <candidate_id>  (1) 
CAND_ee723190bd

>  <source_generator>  (1) 
v5_3_model_guided_macrocycle

>  <parent_mol_id>  (1) 
JAK2_5e05d7987e

>  <canonical_smiles>  (1) 
Cc1cnc2nc1-c1cccc(c1)COCC=C1CNCC3CCN(CCOc4ccc(cc4COC1)N2)C3

>  <inchikey>  (1) 
BPERNDIFDVEWHX-UHFFFAOYSA-N

>  <valid_rdkit>  (1) 
True

>  <unique_flag>  (1) 
True

>  <novel_flag>  (1) 
True

>  <mw>  (1) 
527.669

>  <logp>  (1) 
4.4727

>  <tpsa>  (1) 
80.77

>  <hbd>  (1) 
2

>  <hba>  (1) 
8

>  <rotatable_bonds>  (1) 
0

>  <qed>  (1) 
0.4147

>  <sa_score>  (1) 
4.887

>  <murcko_scaffold>  (1) 
C1=C2CNCC3CCN(CCOc4ccc(cc4COC2)Nc2nccc(n2)-c2cccc(c2)COC1)C3

>  <max_ring_size>  (1) 
18

>  <has_macrocycle_12_20>  (1) 
True

>  <has_constrained_ring_8_11>  (1) 
False

>  <passes_basic_filters>  (1) 
True

>  <generation_notes>  (1) 
v5_3_model_guided_anchor_pair=17-32;anchor_scores=0.312,0.079;linker_length=3;target_ring=14;linker_prob=0.523;chemotype=aza

$$$$
