CAND_3c64f44e76
     RDKit          3D

 75 81  0  0  0  0  0  0  0  0999 V2000
   -5.6311    3.4765    1.8387 C   0  0  0  0  0  0  0  0  0  0  0  0
   -4.2740    3.0596    1.4990 N   0  0  0  0  0  0  0  0  0  0  0  0
   -3.4968    4.1615    0.8848 C   0  0  0  0  0  0  0  0  0  0  0  0
   -3.2146    3.9898   -0.6242 C   0  0  0  0  0  0  0  0  0  0  0  0
   -2.5071    2.7276   -0.9027 N   0  0  0  0  0  0  0  0  0  0  0  0
   -1.1170    2.8641   -1.0014 C   0  0  0  0  0  0  0  0  0  0  0  0
   -0.4056    2.0258   -1.8485 C   0  0  0  0  0  0  0  0  0  0  0  0
    0.9847    2.0179   -1.8012 C   0  0  0  0  0  0  0  0  0  0  0  0
    1.6637    2.8664   -0.9235 C   0  0  0  0  0  0  0  0  0  0  0  0
    0.8752    3.7404   -0.1878 C   0  0  0  0  0  0  0  0  0  0  0  0
   -0.4808    3.7663   -0.2211 N   0  0  0  0  0  0  0  0  0  0  0  0
    3.0936    2.7091   -0.6947 C   0  0  0  0  0  0  0  0  0  0  0  0
    4.0364    3.7185   -0.6780 C   0  0  0  0  0  0  0  0  0  0  0  0
    5.3482    3.4881   -0.4121 N   0  0  0  0  0  0  0  0  0  0  0  0
    5.7001    2.2111   -0.1398 C   0  0  0  0  0  0  0  0  0  0  0  0
    7.0188    1.8991    0.1640 C   0  0  0  0  0  0  0  0  0  0  0  0
    7.4064    0.5937    0.4737 C   0  0  0  0  0  0  0  0  0  0  0  0
    6.4585   -0.4256    0.4863 C   0  0  0  0  0  0  0  0  0  0  0  0
    5.1207   -0.1449    0.1765 C   0  0  0  0  0  0  0  0  0  0  0  0
    4.7446    1.1704   -0.1446 C   0  0  0  0  0  0  0  0  0  0  0  0
    3.4593    1.4353   -0.4372 N   0  0  0  0  0  0  0  0  0  0  0  0
    4.0946   -1.2037    0.2173 C   0  0  0  0  0  0  0  0  0  0  0  0
    3.6003   -1.6786    1.4397 C   0  0  0  0  0  0  0  0  0  0  0  0
    2.5257   -2.5691    1.4690 C   0  0  0  0  0  0  0  0  0  0  0  0
    2.0833   -2.9969    2.6608 F   0  0  0  0  0  0  0  0  0  0  0  0
    1.9145   -3.0208    0.2987 C   0  0  0  0  0  0  0  0  0  0  0  0
    2.4304   -2.5671   -0.9130 C   0  0  0  0  0  0  0  0  0  0  0  0
    1.8895   -2.9828   -2.0669 F   0  0  0  0  0  0  0  0  0  0  0  0
    3.5025   -1.6768   -0.9636 C   0  0  0  0  0  0  0  0  0  0  0  0
    0.7591   -3.9803    0.3490 C   0  0  0  0  0  0  0  0  0  0  0  0
   -0.5307   -3.3460    0.7108 N   0  0  0  0  0  0  0  0  0  0  0  0
   -1.4098   -4.2816    1.4219 C   0  0  0  0  0  0  0  0  0  0  0  0
   -1.8487   -5.4877    0.6110 C   0  0  0  0  0  0  0  0  0  0  0  0
   -2.5325   -4.9925   -0.9508 S   0  0  0  0  0  0  0  0  0  0  0  0
   -3.9156   -5.4323   -0.9845 O   0  0  0  0  0  0  0  0  0  0  0  0
   -1.6084   -5.3877   -1.9966 O   0  0  0  0  0  0  0  0  0  0  0  0
   -2.5457   -3.2275   -0.8594 C   0  0  0  0  0  0  0  0  0  0  0  0
   -1.1836   -2.6629   -0.4379 C   0  0  0  0  0  0  0  0  0  0  0  0
   -1.3746   -1.1599   -0.0938 C   0  0  0  0  0  0  0  0  0  0  0  0
   -1.9471   -0.4784   -1.2161 O   0  0  0  0  0  0  0  0  0  0  0  0
   -3.1348    0.2725   -0.9282 C   0  0  0  0  0  0  0  0  0  0  0  0
   -2.9312    1.5516   -0.0725 C   0  0  0  0  0  0  0  0  0  0  0  0
   -4.2915    1.8626    0.6334 C   0  0  0  0  0  0  0  0  0  0  0  0
   -6.1779    2.6563    2.3171 H   0  0  0  0  0  0  0  0  0  0  0  0
   -5.6101    4.3015    2.5593 H   0  0  0  0  0  0  0  0  0  0  0  0
   -6.1961    3.8012    0.9575 H   0  0  0  0  0  0  0  0  0  0  0  0
   -2.5443    4.2145    1.4249 H   0  0  0  0  0  0  0  0  0  0  0  0
   -3.9838    5.1311    1.0479 H   0  0  0  0  0  0  0  0  0  0  0  0
   -4.1683    3.9731   -1.1676 H   0  0  0  0  0  0  0  0  0  0  0  0
   -2.6729    4.8614   -1.0139 H   0  0  0  0  0  0  0  0  0  0  0  0
   -0.9248    1.3433   -2.5119 H   0  0  0  0  0  0  0  0  0  0  0  0
    1.5307    1.2983   -2.4076 H   0  0  0  0  0  0  0  0  0  0  0  0
    1.3113    4.4325    0.5278 H   0  0  0  0  0  0  0  0  0  0  0  0
    3.7770    4.7514   -0.8825 H   0  0  0  0  0  0  0  0  0  0  0  0
    7.7601    2.6950    0.1651 H   0  0  0  0  0  0  0  0  0  0  0  0
    8.4456    0.3776    0.7110 H   0  0  0  0  0  0  0  0  0  0  0  0
    6.7635   -1.4398    0.7367 H   0  0  0  0  0  0  0  0  0  0  0  0
    4.0144   -1.3293    2.3819 H   0  0  0  0  0  0  0  0  0  0  0  0
    3.8410   -1.3226   -1.9341 H   0  0  0  0  0  0  0  0  0  0  0  0
    0.6776   -4.5400   -0.5914 H   0  0  0  0  0  0  0  0  0  0  0  0
    1.0272   -4.7368    1.1003 H   0  0  0  0  0  0  0  0  0  0  0  0
   -2.2901   -3.7351    1.7846 H   0  0  0  0  0  0  0  0  0  0  0  0
   -0.9092   -4.6284    2.3350 H   0  0  0  0  0  0  0  0  0  0  0  0
   -2.6185   -6.0451    1.1535 H   0  0  0  0  0  0  0  0  0  0  0  0
   -1.0148   -6.1669    0.4096 H   0  0  0  0  0  0  0  0  0  0  0  0
   -2.8368   -2.8639   -1.8509 H   0  0  0  0  0  0  0  0  0  0  0  0
   -3.3384   -2.9506   -0.1551 H   0  0  0  0  0  0  0  0  0  0  0  0
   -0.5423   -2.7132   -1.3271 H   0  0  0  0  0  0  0  0  0  0  0  0
   -0.4050   -0.6941    0.1140 H   0  0  0  0  0  0  0  0  0  0  0  0
   -1.9999   -1.0515    0.8015 H   0  0  0  0  0  0  0  0  0  0  0  0
   -3.5714    0.5481   -1.8953 H   0  0  0  0  0  0  0  0  0  0  0  0
   -3.8465   -0.4112   -0.4497 H   0  0  0  0  0  0  0  0  0  0  0  0
   -2.1840    1.3684    0.7118 H   0  0  0  0  0  0  0  0  0  0  0  0
   -5.0669    1.9678   -0.1392 H   0  0  0  0  0  0  0  0  0  0  0  0
   -4.5749    1.0022    1.2527 H   0  0  0  0  0  0  0  0  0  0  0  0
  1  2  1  0
  2  3  1  0
  3  4  1  0
  4  5  1  0
  5  6  1  0
  6  7  2  0
  7  8  1  0
  8  9  2  0
  9 10  1  0
 10 11  2  0
  9 12  1  0
 12 13  2  0
 13 14  1  0
 14 15  2  0
 15 16  1  0
 16 17  2  0
 17 18  1  0
 18 19  2  0
 19 20  1  0
 20 21  2  0
 19 22  1  0
 22 23  2  0
 23 24  1  0
 24 25  1  0
 24 26  2  0
 26 27  1  0
 27 28  1  0
 27 29  2  0
 26 30  1  0
 30 31  1  0
 31 32  1  0
 32 33  1  0
 33 34  1  0
 34 35  2  0
 34 36  2  0
 34 37  1  0
 37 38  1  0
 38 39  1  0
 39 40  1  0
 40 41  1  0
 41 42  1  0
 42 43  1  0
 43  2  1  0
 42  5  1  0
 11  6  1  0
 21 12  1  0
 29 22  1  0
 38 31  1  0
 20 15  1  0
  1 44  1  0
  1 45  1  0
  1 46  1  0
  3 47  1  0
  3 48  1  0
  4 49  1  0
  4 50  1  0
  7 51  1  0
  8 52  1  0
 10 53  1  0
 13 54  1  0
 16 55  1  0
 17 56  1  0
 18 57  1  0
 23 58  1  0
 29 59  1  0
 30 60  1  0
 30 61  1  0
 32 62  1  0
 32 63  1  0
 33 64  1  0
 33 65  1  0
 37 66  1  0
 37 67  1  0
 38 68  1  0
 39 69  1  0
 39 70  1  0
 41 71  1  0
 41 72  1  0
 42 73  1  0
 43 74  1  0
 43 75  1  0
M  END
>  <candidate_id>  (1) 
CAND_3c64f44e76

>  <source_generator>  (1) 
v5_3_model_guided_macrocycle

>  <parent_mol_id>  (1) 
JAK2_52b2cf11d9

>  <canonical_smiles>  (1) 
CN1CCN2c3ccc(cn3)-c3cnc4cccc(c4n3)-c3cc(F)c(c(F)c3)CN3CCS(=O)(=O)CC3COCC2C1

>  <inchikey>  (1) 
YWSGJALAUQEGQN-UHFFFAOYSA-N

>  <valid_rdkit>  (1) 
True

>  <unique_flag>  (1) 
True

>  <novel_flag>  (1) 
True

>  <mw>  (1) 
606.699

>  <logp>  (1) 
3.3866

>  <tpsa>  (1) 
91.76

>  <hbd>  (1) 
0

>  <hba>  (1) 
9

>  <rotatable_bonds>  (1) 
0

>  <qed>  (1) 
0.2989

>  <sa_score>  (1) 
5.326

>  <murcko_scaffold>  (1) 
O=S1(=O)CCN2Cc3ccc(cc3)-c3cccc4ncc(nc34)-c3ccc(nc3)N3CCNCC3COCC2C1

>  <max_ring_size>  (1) 
20

>  <has_macrocycle_12_20>  (1) 
True

>  <has_constrained_ring_8_11>  (1) 
False

>  <passes_basic_filters>  (1) 
True

>  <generation_notes>  (1) 
v5_3_model_guided_anchor_pair=3-24;anchor_scores=0.079,0.079;linker_length=3;target_ring=19;linker_prob=0.650;chemotype=oxa

$$$$
