CAND_ed05fcd36e
     RDKit          3D

 69 74  0  0  0  0  0  0  0  0999 V2000
   -1.3527    3.0214    0.1394 C   0  0  0  0  0  0  0  0  0  0  0  0
   -0.0601    2.9152    0.5203 C   0  0  0  0  0  0  0  0  0  0  0  0
    0.2908    2.1294    1.7709 C   0  0  0  0  0  0  0  0  0  0  0  0
   -0.2365    0.8006    1.7495 O   0  0  0  0  0  0  0  0  0  0  0  0
    0.4970   -0.0438    0.8582 C   0  0  0  0  0  0  0  0  0  0  0  0
    0.2934   -1.5056    1.1707 C   0  0  0  0  0  0  0  0  0  0  0  0
   -1.0068   -2.0303    1.3086 C   0  0  0  0  0  0  0  0  0  0  0  0
   -1.2377   -3.3924    1.5555 C   0  0  0  0  0  0  0  0  0  0  0  0
   -0.1195   -4.2323    1.6751 C   0  0  0  0  0  0  0  0  0  0  0  0
    1.1779   -3.7371    1.5252 C   0  0  0  0  0  0  0  0  0  0  0  0
    1.3757   -2.3877    1.2415 C   0  0  0  0  0  0  0  0  0  0  0  0
    2.6540   -1.9224    1.0893 O   0  0  0  0  0  0  0  0  0  0  0  0
    3.1824   -2.2191   -0.2142 C   0  0  0  0  0  0  0  0  0  0  0  0
    3.4720   -0.9212   -1.0027 C   0  0  0  0  0  0  0  0  0  0  0  0
    4.3374    0.0486   -0.3091 N   0  0  0  0  0  0  0  0  0  0  0  0
    5.6635   -0.4954   -0.0097 C   0  0  0  0  0  0  0  0  0  0  0  0
    6.4801    0.7484    0.2574 C   0  0  0  0  0  0  0  0  0  0  0  0
    5.9955    1.6942   -0.8224 C   0  0  0  0  0  0  0  0  0  0  0  0
    4.5182    1.3196   -1.0518 C   0  0  0  0  0  0  0  0  0  0  0  0
    3.5970    2.4368   -0.5060 C   0  0  0  0  0  0  0  0  0  0  0  0
    1.9469    2.4628   -1.2949 S   0  0  0  0  0  0  0  0  0  0  0  0
    1.0928    3.6057   -0.1652 C   0  0  0  0  0  0  0  0  0  0  0  0
   -2.5133   -3.9695    1.6156 N   0  0  0  0  0  0  0  0  0  0  0  0
   -3.7698   -3.5296    1.2088 C   0  0  0  0  0  0  0  0  0  0  0  0
   -4.7881   -4.3781    1.4252 N   0  0  0  0  0  0  0  0  0  0  0  0
   -6.0081   -3.9988    0.9953 C   0  0  0  0  0  0  0  0  0  0  0  0
   -6.2573   -2.8109    0.3557 C   0  0  0  0  0  0  0  0  0  0  0  0
   -5.1607   -2.0029    0.1883 C   0  0  0  0  0  0  0  0  0  0  0  0
   -3.9271   -2.3554    0.5969 N   0  0  0  0  0  0  0  0  0  0  0  0
   -5.2352   -0.6962   -0.4682 C   0  0  0  0  0  0  0  0  0  0  0  0
   -5.9099   -0.3088   -1.6109 C   0  0  0  0  0  0  0  0  0  0  0  0
   -5.6377    1.0474   -1.9734 C   0  0  0  0  0  0  0  0  0  0  0  0
   -4.7845    1.6663   -1.0830 C   0  0  0  0  0  0  0  0  0  0  0  0
   -4.3852    0.6269    0.2145 S   0  0  0  0  0  0  0  0  0  0  0  0
   -4.2056    3.0448   -1.1256 C   0  0  0  0  0  0  0  0  0  0  0  0
   -2.9005    2.9248   -1.6905 O   0  0  0  0  0  0  0  0  0  0  0  0
   -1.9209    3.7397   -1.0491 C   0  0  0  0  0  0  0  0  0  0  0  0
   -2.0865    2.5070    0.7574 H   0  0  0  0  0  0  0  0  0  0  0  0
   -0.1514    2.6388    2.6361 H   0  0  0  0  0  0  0  0  0  0  0  0
    1.3709    2.1028    1.9592 H   0  0  0  0  0  0  0  0  0  0  0  0
    1.5578    0.2037    0.9385 H   0  0  0  0  0  0  0  0  0  0  0  0
    0.1677    0.1384   -0.1696 H   0  0  0  0  0  0  0  0  0  0  0  0
   -1.8417   -1.3389    1.2226 H   0  0  0  0  0  0  0  0  0  0  0  0
   -0.2520   -5.2939    1.8660 H   0  0  0  0  0  0  0  0  0  0  0  0
    2.0279   -4.4055    1.6175 H   0  0  0  0  0  0  0  0  0  0  0  0
    2.5062   -2.8481   -0.8100 H   0  0  0  0  0  0  0  0  0  0  0  0
    4.1042   -2.7938   -0.0711 H   0  0  0  0  0  0  0  0  0  0  0  0
    2.5082   -0.4479   -1.2105 H   0  0  0  0  0  0  0  0  0  0  0  0
    3.9065   -1.1931   -1.9733 H   0  0  0  0  0  0  0  0  0  0  0  0
    5.6525   -1.1550    0.8644 H   0  0  0  0  0  0  0  0  0  0  0  0
    6.0815   -1.0421   -0.8636 H   0  0  0  0  0  0  0  0  0  0  0  0
    7.5568    0.5660    0.1970 H   0  0  0  0  0  0  0  0  0  0  0  0
    6.2542    1.1579    1.2497 H   0  0  0  0  0  0  0  0  0  0  0  0
    6.1595    2.7391   -0.5400 H   0  0  0  0  0  0  0  0  0  0  0  0
    6.5626    1.5071   -1.7431 H   0  0  0  0  0  0  0  0  0  0  0  0
    4.3745    1.1925   -2.1329 H   0  0  0  0  0  0  0  0  0  0  0  0
    3.4839    2.3341    0.5785 H   0  0  0  0  0  0  0  0  0  0  0  0
    4.0391    3.4197   -0.7006 H   0  0  0  0  0  0  0  0  0  0  0  0
    1.7823    4.0219    0.5774 H   0  0  0  0  0  0  0  0  0  0  0  0
    0.7485    4.4596   -0.7572 H   0  0  0  0  0  0  0  0  0  0  0  0
   -2.5854   -4.8985    1.9976 H   0  0  0  0  0  0  0  0  0  0  0  0
   -6.8065   -4.7086    1.1901 H   0  0  0  0  0  0  0  0  0  0  0  0
   -7.2482   -2.5327    0.0279 H   0  0  0  0  0  0  0  0  0  0  0  0
   -6.5192   -0.9800   -2.2023 H   0  0  0  0  0  0  0  0  0  0  0  0
   -6.0181    1.5283   -2.8655 H   0  0  0  0  0  0  0  0  0  0  0  0
   -4.8010    3.6969   -1.7742 H   0  0  0  0  0  0  0  0  0  0  0  0
   -4.1909    3.4894   -0.1224 H   0  0  0  0  0  0  0  0  0  0  0  0
   -2.3533    4.7029   -0.7560 H   0  0  0  0  0  0  0  0  0  0  0  0
   -1.1482    3.9368   -1.7965 H   0  0  0  0  0  0  0  0  0  0  0  0
  1  2  2  0
  2  3  1  0
  3  4  1  0
  4  5  1  0
  5  6  1  0
  6  7  1  0
  7  8  2  0
  8  9  1  0
  9 10  2  0
 10 11  1  0
 11 12  1  0
 12 13  1  0
 13 14  1  0
 14 15  1  0
 15 16  1  0
 16 17  1  0
 17 18  1  0
 18 19  1  0
 19 20  1  0
 20 21  1  0
 21 22  1  0
  8 23  1  0
 23 24  1  0
 24 25  1  0
 25 26  2  0
 26 27  1  0
 27 28  2  0
 28 29  1  0
 28 30  1  0
 30 31  2  0
 31 32  1  0
 32 33  2  0
 33 34  1  0
 33 35  1  0
 35 36  1  0
 36 37  1  0
 37  1  1  0
 22  2  1  0
 29 24  2  0
 34 30  1  0
 11  6  2  0
 19 15  1  0
  1 38  1  0
  3 39  1  0
  3 40  1  0
  5 41  1  0
  5 42  1  0
  7 43  1  0
  9 44  1  0
 10 45  1  0
 13 46  1  0
 13 47  1  0
 14 48  1  0
 14 49  1  0
 16 50  1  0
 16 51  1  0
 17 52  1  0
 17 53  1  0
 18 54  1  0
 18 55  1  0
 19 56  1  0
 20 57  1  0
 20 58  1  0
 22 59  1  0
 22 60  1  0
 23 61  1  0
 26 62  1  0
 27 63  1  0
 31 64  1  0
 32 65  1  0
 35 66  1  0
 35 67  1  0
 37 68  1  0
 37 69  1  0
M  END
>  <candidate_id>  (1) 
CAND_ed05fcd36e

>  <source_generator>  (1) 
v5_3_model_guided_macrocycle

>  <parent_mol_id>  (1) 
JAK2_522c241c10

>  <canonical_smiles>  (1) 
C1=C2/COCc3cc(ccc3OCCN3CCCC3CSC2)Nc2nccc(n2)-c2ccc(s2)COC/1

>  <inchikey>  (1) 
FQBYPASYAZGICA-ZBKNUEDVSA-N

>  <valid_rdkit>  (1) 
True

>  <unique_flag>  (1) 
True

>  <novel_flag>  (1) 
True

>  <mw>  (1) 
536.723

>  <logp>  (1) 
5.5119

>  <tpsa>  (1) 
68.74

>  <hbd>  (1) 
1

>  <hba>  (1) 
9

>  <rotatable_bonds>  (1) 
0

>  <qed>  (1) 
0.3773

>  <sa_score>  (1) 
4.943

>  <murcko_scaffold>  (1) 
C1=C2/COCc3cc(ccc3OCCN3CCCC3CSC2)Nc2nccc(n2)-c2ccc(s2)COC/1

>  <max_ring_size>  (1) 
18

>  <has_macrocycle_12_20>  (1) 
True

>  <has_constrained_ring_8_11>  (1) 
False

>  <passes_basic_filters>  (1) 
True

>  <generation_notes>  (1) 
v5_3_model_guided_anchor_pair=1-15;anchor_scores=0.312,0.079;linker_length=3;target_ring=13;linker_prob=0.455;chemotype=thioether

$$$$
