CAND_3b164e0480
     RDKit          3D

 70 76  0  0  0  0  0  0  0  0999 V2000
    2.2489    0.6221    2.3024 F   0  0  0  0  0  0  0  0  0  0  0  0
    2.7507    0.2716    1.1089 C   0  0  0  0  0  0  0  0  0  0  0  0
    2.9937   -1.0754    0.8630 C   0  0  0  0  0  0  0  0  0  0  0  0
    3.4568   -1.5077   -0.3919 C   0  0  0  0  0  0  0  0  0  0  0  0
    3.7703   -0.5326   -1.3454 C   0  0  0  0  0  0  0  0  0  0  0  0
    3.5383    0.8181   -1.0733 C   0  0  0  0  0  0  0  0  0  0  0  0
    3.8361    1.7132   -2.0263 F   0  0  0  0  0  0  0  0  0  0  0  0
    2.9859    1.2400    0.1377 C   0  0  0  0  0  0  0  0  0  0  0  0
    2.6033    2.6732    0.3861 C   0  0  0  0  0  0  0  0  0  0  0  0
    1.4063    3.0442   -0.4014 N   0  0  0  0  0  0  0  0  0  0  0  0
    1.7749    4.0452   -1.4360 C   0  0  0  0  0  0  0  0  0  0  0  0
    1.6530    5.5195   -0.9858 C   0  0  0  0  0  0  0  0  0  0  0  0
    1.8149    5.6610    0.4292 O   0  0  0  0  0  0  0  0  0  0  0  0
    0.8069    4.9354    1.1565 C   0  0  0  0  0  0  0  0  0  0  0  0
    0.3270    3.6531    0.4257 C   0  0  0  0  0  0  0  0  0  0  0  0
   -0.4223    2.6958    1.3951 C   0  0  0  0  0  0  0  0  0  0  0  0
   -1.1168    1.6274    0.6580 N   0  0  0  0  0  0  0  0  0  0  0  0
   -2.1739    0.9823    1.4571 C   0  0  0  0  0  0  0  0  0  0  0  0
   -3.1252    0.0050    0.6695 C   0  0  0  0  0  0  0  0  0  0  0  0
   -4.4921   -0.0368    1.4156 C   0  0  0  0  0  0  0  0  0  0  0  0
   -5.5285   -0.9152    0.7017 C   0  0  0  0  0  0  0  0  0  0  0  0
   -5.3638   -0.9546   -0.7515 N   0  0  0  0  0  0  0  0  0  0  0  0
   -4.8347    0.2905   -1.2708 C   0  0  0  0  0  0  0  0  0  0  0  0
   -3.4091    0.5422   -0.7720 C   0  0  0  0  0  0  0  0  0  0  0  0
   -2.5023   -1.3400    0.6540 N   0  0  0  0  0  0  0  0  0  0  0  0
   -1.4124   -1.7399   -0.0732 C   0  0  0  0  0  0  0  0  0  0  0  0
   -1.1360   -3.0410    0.2955 C   0  0  0  0  0  0  0  0  0  0  0  0
   -2.0940   -3.3319    1.2805 C   0  0  0  0  0  0  0  0  0  0  0  0
   -2.8960   -2.2960    1.5358 N   0  0  0  0  0  0  0  0  0  0  0  0
    0.0084   -3.7833   -0.1713 C   0  0  0  0  0  0  0  0  0  0  0  0
    0.0143   -5.1418   -0.4092 C   0  0  0  0  0  0  0  0  0  0  0  0
    1.1364   -5.8064   -0.7922 N   0  0  0  0  0  0  0  0  0  0  0  0
    2.2679   -5.0738   -0.9071 C   0  0  0  0  0  0  0  0  0  0  0  0
    3.4584   -5.6830   -1.2809 C   0  0  0  0  0  0  0  0  0  0  0  0
    4.6469   -4.9576   -1.3888 C   0  0  0  0  0  0  0  0  0  0  0  0
    4.6550   -3.5942   -1.1074 C   0  0  0  0  0  0  0  0  0  0  0  0
    3.4721   -2.9483   -0.7222 C   0  0  0  0  0  0  0  0  0  0  0  0
    2.2743   -3.6847   -0.6440 C   0  0  0  0  0  0  0  0  0  0  0  0
    1.1334   -3.0561   -0.3030 N   0  0  0  0  0  0  0  0  0  0  0  0
    2.7377   -1.7941    1.6383 H   0  0  0  0  0  0  0  0  0  0  0  0
    4.1333   -0.8089   -2.3314 H   0  0  0  0  0  0  0  0  0  0  0  0
    2.4378    2.8093    1.4613 H   0  0  0  0  0  0  0  0  0  0  0  0
    3.4717    3.3101    0.1687 H   0  0  0  0  0  0  0  0  0  0  0  0
    1.1211    3.9016   -2.3058 H   0  0  0  0  0  0  0  0  0  0  0  0
    2.7851    3.8653   -1.8222 H   0  0  0  0  0  0  0  0  0  0  0  0
    2.4236    6.1232   -1.4759 H   0  0  0  0  0  0  0  0  0  0  0  0
    0.6787    5.9355   -1.2700 H   0  0  0  0  0  0  0  0  0  0  0  0
    1.2321    4.7002    2.1378 H   0  0  0  0  0  0  0  0  0  0  0  0
   -0.0408    5.6108    1.3203 H   0  0  0  0  0  0  0  0  0  0  0  0
   -0.4470    3.9781   -0.2881 H   0  0  0  0  0  0  0  0  0  0  0  0
    0.2594    2.2612    2.1335 H   0  0  0  0  0  0  0  0  0  0  0  0
   -1.1550    3.2977    1.9476 H   0  0  0  0  0  0  0  0  0  0  0  0
   -0.4192    0.9497    0.3414 H   0  0  0  0  0  0  0  0  0  0  0  0
   -1.7225    0.4653    2.3139 H   0  0  0  0  0  0  0  0  0  0  0  0
   -2.7991    1.7847    1.8702 H   0  0  0  0  0  0  0  0  0  0  0  0
   -4.8942    0.9849    1.4741 H   0  0  0  0  0  0  0  0  0  0  0  0
   -4.3774   -0.3705    2.4547 H   0  0  0  0  0  0  0  0  0  0  0  0
   -6.5291   -0.5374    0.9462 H   0  0  0  0  0  0  0  0  0  0  0  0
   -5.4924   -1.9416    1.0810 H   0  0  0  0  0  0  0  0  0  0  0  0
   -6.2539   -1.1859   -1.1907 H   0  0  0  0  0  0  0  0  0  0  0  0
   -5.4906    1.1262   -0.9955 H   0  0  0  0  0  0  0  0  0  0  0  0
   -4.8262    0.2574   -2.3662 H   0  0  0  0  0  0  0  0  0  0  0  0
   -3.2652    1.6299   -0.8055 H   0  0  0  0  0  0  0  0  0  0  0  0
   -2.7023    0.1232   -1.4969 H   0  0  0  0  0  0  0  0  0  0  0  0
   -0.9117   -1.0795   -0.7676 H   0  0  0  0  0  0  0  0  0  0  0  0
   -2.2160   -4.2358    1.8627 H   0  0  0  0  0  0  0  0  0  0  0  0
   -0.8775   -5.7494   -0.3071 H   0  0  0  0  0  0  0  0  0  0  0  0
    3.4589   -6.7504   -1.4899 H   0  0  0  0  0  0  0  0  0  0  0  0
    5.5651   -5.4610   -1.6825 H   0  0  0  0  0  0  0  0  0  0  0  0
    5.5884   -3.0390   -1.1753 H   0  0  0  0  0  0  0  0  0  0  0  0
  1  2  1  0
  2  3  1  0
  3  4  2  0
  4  5  1  0
  5  6  2  0
  6  7  1  0
  6  8  1  0
  8  9  1  0
  9 10  1  0
 10 11  1  0
 11 12  1  0
 12 13  1  0
 13 14  1  0
 14 15  1  0
 15 16  1  0
 16 17  1  0
 17 18  1  0
 18 19  1  0
 19 20  1  0
 20 21  1  0
 21 22  1  0
 22 23  1  0
 23 24  1  0
 19 25  1  0
 25 26  1  0
 26 27  2  0
 27 28  1  0
 28 29  2  0
 27 30  1  0
 30 31  2  0
 31 32  1  0
 32 33  2  0
 33 34  1  0
 34 35  2  0
 35 36  1  0
 36 37  2  0
 37 38  1  0
 38 39  2  0
  8  2  2  0
 15 10  1  0
 24 19  1  0
 29 25  1  0
 39 30  1  0
 37  4  1  0
 38 33  1  0
  3 40  1  0
  5 41  1  0
  9 42  1  0
  9 43  1  0
 11 44  1  0
 11 45  1  0
 12 46  1  0
 12 47  1  0
 14 48  1  0
 14 49  1  0
 15 50  1  0
 16 51  1  0
 16 52  1  0
 17 53  1  0
 18 54  1  0
 18 55  1  0
 20 56  1  0
 20 57  1  0
 21 58  1  0
 21 59  1  0
 22 60  1  0
 23 61  1  0
 23 62  1  0
 24 63  1  0
 24 64  1  0
 26 65  1  0
 28 66  1  0
 31 67  1  0
 34 68  1  0
 35 69  1  0
 36 70  1  0
M  END
>  <candidate_id>  (1) 
CAND_3b164e0480

>  <source_generator>  (1) 
v5_3_model_guided_macrocycle

>  <parent_mol_id>  (1) 
JAK2_2dc2722230

>  <canonical_smiles>  (1) 
Fc1cc2cc(F)c1CN1CCOCC1CNCC1(CCNCC1)n1cc(cn1)-c1cnc3cccc-2c3n1

>  <inchikey>  (1) 
BFRBRWWDNZLFGY-UHFFFAOYSA-N

>  <valid_rdkit>  (1) 
True

>  <unique_flag>  (1) 
True

>  <novel_flag>  (1) 
True

>  <mw>  (1) 
531.611

>  <logp>  (1) 
3.3212

>  <tpsa>  (1) 
80.13

>  <hbd>  (1) 
2

>  <hba>  (1) 
7

>  <rotatable_bonds>  (1) 
0

>  <qed>  (1) 
0.3605

>  <sa_score>  (1) 
4.659

>  <murcko_scaffold>  (1) 
c1cc2c3nc(cnc3c1)-c1cnn(c1)C1(CCNCC1)CNCC1COCCN1Cc1ccc-2cc1

>  <max_ring_size>  (1) 
18

>  <has_macrocycle_12_20>  (1) 
True

>  <has_constrained_ring_8_11>  (1) 
False

>  <passes_basic_filters>  (1) 
True

>  <generation_notes>  (1) 
v5_3_model_guided_anchor_pair=16-31;anchor_scores=0.691,0.079;linker_length=3;target_ring=17;linker_prob=0.539;chemotype=aza

$$$$
