CAND_e275a7e3ff
     RDKit          3D

 75 80  0  0  0  0  0  0  0  0999 V2000
    5.5315   -1.1165   -3.2083 C   0  0  0  0  0  0  0  0  0  0  0  0
    4.5431   -1.7276   -2.2687 C   0  0  0  0  0  0  0  0  0  0  0  0
    4.0319   -2.9770   -2.5521 C   0  0  0  0  0  0  0  0  0  0  0  0
    3.0973   -3.5977   -1.8156 N   0  0  0  0  0  0  0  0  0  0  0  0
    2.6096   -2.9298   -0.7626 C   0  0  0  0  0  0  0  0  0  0  0  0
    3.0807   -1.7405   -0.3688 N   0  0  0  0  0  0  0  0  0  0  0  0
    4.0767   -1.1586   -1.0899 C   0  0  0  0  0  0  0  0  0  0  0  0
    4.5890    0.1019   -0.4942 C   0  0  0  0  0  0  0  0  0  0  0  0
    5.9513    0.4526   -0.5186 C   0  0  0  0  0  0  0  0  0  0  0  0
    6.4139    1.6457    0.0439 C   0  0  0  0  0  0  0  0  0  0  0  0
    5.5296    2.4962    0.6973 C   0  0  0  0  0  0  0  0  0  0  0  0
    4.1808    2.1498    0.8106 C   0  0  0  0  0  0  0  0  0  0  0  0
    3.7211    0.9743    0.1910 C   0  0  0  0  0  0  0  0  0  0  0  0
    3.2506    2.9909    1.6429 C   0  0  0  0  0  0  0  0  0  0  0  0
    2.6723    4.0746    0.9210 O   0  0  0  0  0  0  0  0  0  0  0  0
    1.4616    3.7661    0.2236 C   0  0  0  0  0  0  0  0  0  0  0  0
    0.3912    3.3694    1.1971 C   0  0  0  0  0  0  0  0  0  0  0  0
   -0.6643    2.5534    0.9867 C   0  0  0  0  0  0  0  0  0  0  0  0
   -1.4779    2.1087    2.1827 C   0  0  0  0  0  0  0  0  0  0  0  0
   -1.7049    0.7082    2.1147 O   0  0  0  0  0  0  0  0  0  0  0  0
   -0.6867   -0.0979    2.7013 C   0  0  0  0  0  0  0  0  0  0  0  0
   -0.6787   -1.4649    2.0492 C   0  0  0  0  0  0  0  0  0  0  0  0
    0.4572   -1.8925    1.3282 C   0  0  0  0  0  0  0  0  0  0  0  0
    0.5013   -3.1414    0.6955 C   0  0  0  0  0  0  0  0  0  0  0  0
   -0.5910   -4.0063    0.8724 C   0  0  0  0  0  0  0  0  0  0  0  0
   -1.7296   -3.6038    1.5683 C   0  0  0  0  0  0  0  0  0  0  0  0
   -1.7917   -2.3191    2.1010 C   0  0  0  0  0  0  0  0  0  0  0  0
   -2.9618   -1.8647    2.6488 O   0  0  0  0  0  0  0  0  0  0  0  0
   -4.0480   -1.7664    1.6917 C   0  0  0  0  0  0  0  0  0  0  0  0
   -3.6573   -1.1666    0.3223 C   0  0  0  0  0  0  0  0  0  0  0  0
   -4.7227   -0.4062   -0.3515 N   0  0  0  0  0  0  0  0  0  0  0  0
   -5.5774   -1.2445   -1.1891 C   0  0  0  0  0  0  0  0  0  0  0  0
   -6.2744   -0.2096   -2.0500 C   0  0  0  0  0  0  0  0  0  0  0  0
   -5.1816    0.8054   -2.3583 C   0  0  0  0  0  0  0  0  0  0  0  0
   -4.1398    0.6303   -1.2432 C   0  0  0  0  0  0  0  0  0  0  0  0
   -3.8809    1.9298   -0.4517 C   0  0  0  0  0  0  0  0  0  0  0  0
   -2.4697    2.9154   -1.0850 S   0  0  0  0  0  0  0  0  0  0  0  0
   -1.0621    1.9931   -0.3648 C   0  0  0  0  0  0  0  0  0  0  0  0
    1.5361   -3.5636   -0.1451 N   0  0  0  0  0  0  0  0  0  0  0  0
    5.3684   -1.4770   -4.2306 H   0  0  0  0  0  0  0  0  0  0  0  0
    5.4265   -0.0281   -3.2505 H   0  0  0  0  0  0  0  0  0  0  0  0
    6.5530   -1.3800   -2.9188 H   0  0  0  0  0  0  0  0  0  0  0  0
    4.3588   -3.5360   -3.4256 H   0  0  0  0  0  0  0  0  0  0  0  0
    6.6886   -0.2119   -0.9601 H   0  0  0  0  0  0  0  0  0  0  0  0
    7.4705    1.8967   -0.0064 H   0  0  0  0  0  0  0  0  0  0  0  0
    5.9016    3.4117    1.1522 H   0  0  0  0  0  0  0  0  0  0  0  0
    2.6659    0.7149    0.2699 H   0  0  0  0  0  0  0  0  0  0  0  0
    3.8269    3.4352    2.4640 H   0  0  0  0  0  0  0  0  0  0  0  0
    2.5013    2.3593    2.1339 H   0  0  0  0  0  0  0  0  0  0  0  0
    1.1543    4.6801   -0.2941 H   0  0  0  0  0  0  0  0  0  0  0  0
    1.6651    2.9987   -0.5274 H   0  0  0  0  0  0  0  0  0  0  0  0
    0.5412    3.7681    2.2003 H   0  0  0  0  0  0  0  0  0  0  0  0
   -1.0110    2.3663    3.1414 H   0  0  0  0  0  0  0  0  0  0  0  0
   -2.4495    2.6114    2.1665 H   0  0  0  0  0  0  0  0  0  0  0  0
    0.2957    0.3761    2.5876 H   0  0  0  0  0  0  0  0  0  0  0  0
   -0.8854   -0.2009    3.7740 H   0  0  0  0  0  0  0  0  0  0  0  0
    1.3069   -1.2210    1.2443 H   0  0  0  0  0  0  0  0  0  0  0  0
   -0.5830   -4.9976    0.4252 H   0  0  0  0  0  0  0  0  0  0  0  0
   -2.5746   -4.2794    1.6582 H   0  0  0  0  0  0  0  0  0  0  0  0
   -4.7893   -1.1167    2.1715 H   0  0  0  0  0  0  0  0  0  0  0  0
   -4.5219   -2.7479    1.5718 H   0  0  0  0  0  0  0  0  0  0  0  0
   -2.8187   -0.4937    0.4818 H   0  0  0  0  0  0  0  0  0  0  0  0
   -3.2613   -1.9527   -0.3340 H   0  0  0  0  0  0  0  0  0  0  0  0
   -6.2899   -1.8272   -0.5976 H   0  0  0  0  0  0  0  0  0  0  0  0
   -4.9968   -1.9270   -1.8223 H   0  0  0  0  0  0  0  0  0  0  0  0
   -6.7050   -0.6414   -2.9583 H   0  0  0  0  0  0  0  0  0  0  0  0
   -7.0824    0.2739   -1.4869 H   0  0  0  0  0  0  0  0  0  0  0  0
   -5.5965    1.8159   -2.4284 H   0  0  0  0  0  0  0  0  0  0  0  0
   -4.7241    0.5683   -3.3265 H   0  0  0  0  0  0  0  0  0  0  0  0
   -3.2154    0.2509   -1.7004 H   0  0  0  0  0  0  0  0  0  0  0  0
   -3.6992    1.7182    0.6029 H   0  0  0  0  0  0  0  0  0  0  0  0
   -4.7669    2.5744   -0.4715 H   0  0  0  0  0  0  0  0  0  0  0  0
   -1.2664    0.9212   -0.3280 H   0  0  0  0  0  0  0  0  0  0  0  0
   -0.2428    2.1004   -1.0813 H   0  0  0  0  0  0  0  0  0  0  0  0
    1.4295   -4.4739   -0.5695 H   0  0  0  0  0  0  0  0  0  0  0  0
  1  2  1  0
  2  3  2  0
  3  4  1  0
  4  5  2  0
  5  6  1  0
  6  7  2  0
  7  8  1  0
  8  9  2  0
  9 10  1  0
 10 11  2  0
 11 12  1  0
 12 13  2  0
 12 14  1  0
 14 15  1  0
 15 16  1  0
 16 17  1  0
 17 18  2  3
 18 19  1  0
 19 20  1  0
 20 21  1  0
 21 22  1  0
 22 23  2  0
 23 24  1  0
 24 25  2  0
 25 26  1  0
 26 27  2  0
 27 28  1  0
 28 29  1  0
 29 30  1  0
 30 31  1  0
 31 32  1  0
 32 33  1  0
 33 34  1  0
 34 35  1  0
 35 36  1  0
 36 37  1  0
 37 38  1  0
 24 39  1  0
  7  2  1  0
 13  8  1  0
 38 18  1  0
 39  5  1  0
 27 22  1  0
 35 31  1  0
  1 40  1  0
  1 41  1  0
  1 42  1  0
  3 43  1  0
  9 44  1  0
 10 45  1  0
 11 46  1  0
 13 47  1  0
 14 48  1  0
 14 49  1  0
 16 50  1  0
 16 51  1  0
 17 52  1  0
 19 53  1  0
 19 54  1  0
 21 55  1  0
 21 56  1  0
 23 57  1  0
 25 58  1  0
 26 59  1  0
 29 60  1  0
 29 61  1  0
 30 62  1  0
 30 63  1  0
 32 64  1  0
 32 65  1  0
 33 66  1  0
 33 67  1  0
 34 68  1  0
 34 69  1  0
 35 70  1  0
 36 71  1  0
 36 72  1  0
 38 73  1  0
 38 74  1  0
 39 75  1  0
M  END
>  <candidate_id>  (1) 
CAND_e275a7e3ff

>  <source_generator>  (1) 
v5_3_model_guided_macrocycle

>  <parent_mol_id>  (1) 
JAK2_5e05d7987e

>  <canonical_smiles>  (1) 
Cc1cnc2nc1-c1cccc(c1)COCC=C1COCc3cc(ccc3OCCN3CCCC3CSC1)N2

>  <inchikey>  (1) 
SRGJTJXFDGZNNS-UHFFFAOYSA-N

>  <valid_rdkit>  (1) 
True

>  <unique_flag>  (1) 
True

>  <novel_flag>  (1) 
True

>  <mw>  (1) 
544.721

>  <logp>  (1) 
5.7588

>  <tpsa>  (1) 
68.74

>  <hbd>  (1) 
1

>  <hba>  (1) 
8

>  <rotatable_bonds>  (1) 
0

>  <qed>  (1) 
0.3586

>  <sa_score>  (1) 
5.111

>  <murcko_scaffold>  (1) 
C1=C2COCc3cc(ccc3OCCN3CCCC3CSC2)Nc2nccc(n2)-c2cccc(c2)COC1

>  <max_ring_size>  (1) 
18

>  <has_macrocycle_12_20>  (1) 
True

>  <has_constrained_ring_8_11>  (1) 
False

>  <passes_basic_filters>  (1) 
True

>  <generation_notes>  (1) 
v5_3_model_guided_anchor_pair=17-31;anchor_scores=0.312,0.079;linker_length=3;target_ring=13;linker_prob=0.563;chemotype=thioether

$$$$
