CAND_598172bd63
     RDKit          3D

 71 77  0  0  0  0  0  0  0  0999 V2000
   -2.3158    0.2721    1.4193 F   0  0  0  0  0  0  0  0  0  0  0  0
   -2.4411   -0.8094    0.6367 C   0  0  0  0  0  0  0  0  0  0  0  0
   -1.8498   -2.0018    1.0511 C   0  0  0  0  0  0  0  0  0  0  0  0
   -1.9056   -3.1505    0.2456 C   0  0  0  0  0  0  0  0  0  0  0  0
   -2.6378   -3.0761   -0.9481 C   0  0  0  0  0  0  0  0  0  0  0  0
   -3.2328   -1.8778   -1.3422 C   0  0  0  0  0  0  0  0  0  0  0  0
   -3.9074   -1.8542   -2.5012 F   0  0  0  0  0  0  0  0  0  0  0  0
   -3.1199   -0.7180   -0.5753 C   0  0  0  0  0  0  0  0  0  0  0  0
   -3.6611    0.5938   -1.0732 C   0  0  0  0  0  0  0  0  0  0  0  0
   -2.8991    1.1181   -2.2123 N   0  0  0  0  0  0  0  0  0  0  0  0
   -3.6397    2.1659   -2.9362 C   0  0  0  0  0  0  0  0  0  0  0  0
   -2.8835    2.6258   -4.1949 C   0  0  0  0  0  0  0  0  0  0  0  0
   -1.5334    3.0106   -3.9027 O   0  0  0  0  0  0  0  0  0  0  0  0
   -0.8454    1.9175   -3.2765 C   0  0  0  0  0  0  0  0  0  0  0  0
   -1.5012    1.5479   -1.9221 C   0  0  0  0  0  0  0  0  0  0  0  0
   -1.3953    2.7054   -0.8933 C   0  0  0  0  0  0  0  0  0  0  0  0
    0.0253    3.1917   -0.5620 C   0  0  0  0  0  0  0  0  0  0  0  0
    0.8644    2.1795    0.2292 C   0  0  0  0  0  0  0  0  0  0  0  0
    2.3375    2.6189    0.4599 C   0  0  0  0  0  0  0  0  0  0  0  0
    2.4741    4.0596    0.9902 C   0  0  0  0  0  0  0  0  0  0  0  0
    1.9206    4.1861    2.3394 N   0  0  0  0  0  0  0  0  0  0  0  0
    2.6467    3.3532    3.2971 C   0  0  0  0  0  0  0  0  0  0  0  0
    2.6242    1.8817    2.8949 C   0  0  0  0  0  0  0  0  0  0  0  0
    3.1165    1.7091    1.4488 C   0  0  0  0  0  0  0  0  0  0  0  0
    3.2210    0.3109    1.0539 N   0  0  0  0  0  0  0  0  0  0  0  0
    2.2907   -0.6757    1.2070 C   0  0  0  0  0  0  0  0  0  0  0  0
    2.8969   -1.8569    0.8285 C   0  0  0  0  0  0  0  0  0  0  0  0
    4.1957   -1.4669    0.4471 C   0  0  0  0  0  0  0  0  0  0  0  0
    4.3987   -0.1532    0.5811 N   0  0  0  0  0  0  0  0  0  0  0  0
    2.2485   -3.1475    0.8741 C   0  0  0  0  0  0  0  0  0  0  0  0
    2.9310   -4.3261    1.1024 C   0  0  0  0  0  0  0  0  0  0  0  0
    2.3037   -5.5245    1.1917 N   0  0  0  0  0  0  0  0  0  0  0  0
    0.9637   -5.5186    1.0361 C   0  0  0  0  0  0  0  0  0  0  0  0
    0.2720   -6.7181    1.1223 C   0  0  0  0  0  0  0  0  0  0  0  0
   -1.1099   -6.7740    0.9575 C   0  0  0  0  0  0  0  0  0  0  0  0
   -1.8165   -5.6074    0.6888 C   0  0  0  0  0  0  0  0  0  0  0  0
   -1.1496   -4.3732    0.5934 C   0  0  0  0  0  0  0  0  0  0  0  0
    0.2474   -4.3218    0.7823 C   0  0  0  0  0  0  0  0  0  0  0  0
    0.9082   -3.1441    0.7107 N   0  0  0  0  0  0  0  0  0  0  0  0
   -1.2963   -2.0072    1.9871 H   0  0  0  0  0  0  0  0  0  0  0  0
   -2.7136   -3.9320   -1.6137 H   0  0  0  0  0  0  0  0  0  0  0  0
   -3.7425    1.3261   -0.2620 H   0  0  0  0  0  0  0  0  0  0  0  0
   -4.6975    0.4003   -1.3834 H   0  0  0  0  0  0  0  0  0  0  0  0
   -4.6190    1.7861   -3.2513 H   0  0  0  0  0  0  0  0  0  0  0  0
   -3.8227    3.0269   -2.2831 H   0  0  0  0  0  0  0  0  0  0  0  0
   -2.8705    1.8336   -4.9536 H   0  0  0  0  0  0  0  0  0  0  0  0
   -3.3879    3.4927   -4.6335 H   0  0  0  0  0  0  0  0  0  0  0  0
   -0.8450    1.0561   -3.9576 H   0  0  0  0  0  0  0  0  0  0  0  0
    0.2013    2.2068   -3.1501 H   0  0  0  0  0  0  0  0  0  0  0  0
   -0.9500    0.6833   -1.5365 H   0  0  0  0  0  0  0  0  0  0  0  0
   -1.9496    3.5779   -1.2587 H   0  0  0  0  0  0  0  0  0  0  0  0
   -1.8722    2.4145    0.0487 H   0  0  0  0  0  0  0  0  0  0  0  0
    0.5543    3.4996   -1.4689 H   0  0  0  0  0  0  0  0  0  0  0  0
   -0.0953    4.0978    0.0439 H   0  0  0  0  0  0  0  0  0  0  0  0
    0.8753    1.2298   -0.3155 H   0  0  0  0  0  0  0  0  0  0  0  0
    0.3632    1.9895    1.1847 H   0  0  0  0  0  0  0  0  0  0  0  0
    2.8400    2.5750   -0.5164 H   0  0  0  0  0  0  0  0  0  0  0  0
    1.9742    4.7697    0.3245 H   0  0  0  0  0  0  0  0  0  0  0  0
    3.5304    4.3596    0.9941 H   0  0  0  0  0  0  0  0  0  0  0  0
    1.9751    5.1618    2.6349 H   0  0  0  0  0  0  0  0  0  0  0  0
    2.1857    3.4628    4.2848 H   0  0  0  0  0  0  0  0  0  0  0  0
    3.6819    3.7041    3.3891 H   0  0  0  0  0  0  0  0  0  0  0  0
    3.2617    1.3093    3.5805 H   0  0  0  0  0  0  0  0  0  0  0  0
    1.6093    1.4844    3.0157 H   0  0  0  0  0  0  0  0  0  0  0  0
    4.1584    2.0677    1.4425 H   0  0  0  0  0  0  0  0  0  0  0  0
    1.2957   -0.4747    1.5803 H   0  0  0  0  0  0  0  0  0  0  0  0
    5.0067   -2.0791    0.0742 H   0  0  0  0  0  0  0  0  0  0  0  0
    4.0051   -4.3550    1.2455 H   0  0  0  0  0  0  0  0  0  0  0  0
    0.8267   -7.6323    1.3219 H   0  0  0  0  0  0  0  0  0  0  0  0
   -1.6297   -7.7263    1.0306 H   0  0  0  0  0  0  0  0  0  0  0  0
   -2.8953   -5.6607    0.5525 H   0  0  0  0  0  0  0  0  0  0  0  0
  1  2  1  0
  2  3  1  0
  3  4  2  0
  4  5  1  0
  5  6  2  0
  6  7  1  0
  6  8  1  0
  8  9  1  0
  9 10  1  0
 10 11  1  0
 11 12  1  0
 12 13  1  0
 13 14  1  0
 14 15  1  0
 15 16  1  0
 16 17  1  0
 17 18  1  0
 18 19  1  0
 19 20  1  0
 20 21  1  0
 21 22  1  0
 22 23  1  0
 23 24  1  0
 24 25  1  0
 25 26  1  0
 26 27  2  0
 27 28  1  0
 28 29  2  0
 27 30  1  0
 30 31  2  0
 31 32  1  0
 32 33  2  0
 33 34  1  0
 34 35  2  0
 35 36  1  0
 36 37  2  0
 37 38  1  0
 38 39  2  0
  8  2  2  0
 15 10  1  0
 24 19  1  0
 29 25  1  0
 39 30  1  0
 37  4  1  0
 38 33  1  0
  3 40  1  0
  5 41  1  0
  9 42  1  0
  9 43  1  0
 11 44  1  0
 11 45  1  0
 12 46  1  0
 12 47  1  0
 14 48  1  0
 14 49  1  0
 15 50  1  0
 16 51  1  0
 16 52  1  0
 17 53  1  0
 17 54  1  0
 18 55  1  0
 18 56  1  0
 19 57  1  0
 20 58  1  0
 20 59  1  0
 21 60  1  0
 22 61  1  0
 22 62  1  0
 23 63  1  0
 23 64  1  0
 24 65  1  0
 26 66  1  0
 28 67  1  0
 31 68  1  0
 34 69  1  0
 35 70  1  0
 36 71  1  0
M  END
>  <candidate_id>  (1) 
CAND_598172bd63

>  <source_generator>  (1) 
v5_3_model_guided_macrocycle

>  <parent_mol_id>  (1) 
JAK2_2dc2722230

>  <canonical_smiles>  (1) 
Fc1cc2cc(F)c1CN1CCOCC1CCCC1CNCCC1n1cc(cn1)-c1cnc3cccc-2c3n1

>  <inchikey>  (1) 
UCSDEFGUMXHZAX-UHFFFAOYSA-N

>  <valid_rdkit>  (1) 
True

>  <unique_flag>  (1) 
True

>  <novel_flag>  (1) 
True

>  <mw>  (1) 
530.623

>  <logp>  (1) 
4.9738

>  <tpsa>  (1) 
68.1

>  <hbd>  (1) 
1

>  <hba>  (1) 
6

>  <rotatable_bonds>  (1) 
0

>  <qed>  (1) 
0.3462

>  <sa_score>  (1) 
5.153

>  <murcko_scaffold>  (1) 
c1cc2c3nc(cnc3c1)-c1cnn(c1)C1CCNCC1CCCC1COCCN1Cc1ccc-2cc1

>  <max_ring_size>  (1) 
19

>  <has_macrocycle_12_20>  (1) 
True

>  <has_constrained_ring_8_11>  (1) 
False

>  <passes_basic_filters>  (1) 
True

>  <generation_notes>  (1) 
v5_3_model_guided_anchor_pair=17-31;anchor_scores=0.079,0.079;linker_length=3;target_ring=18;linker_prob=0.496;chemotype=alkyl

$$$$
