CAND_9f32e71b10
     RDKit          3D

 69 75  0  0  0  0  0  0  0  0999 V2000
   -2.1789    0.0486   -2.4421 F   0  0  0  0  0  0  0  0  0  0  0  0
   -2.5864   -0.3612   -1.2317 C   0  0  0  0  0  0  0  0  0  0  0  0
   -2.5302   -1.7215   -0.9432 C   0  0  0  0  0  0  0  0  0  0  0  0
   -2.9360   -2.2092    0.3086 C   0  0  0  0  0  0  0  0  0  0  0  0
   -3.4727   -1.2924    1.2205 C   0  0  0  0  0  0  0  0  0  0  0  0
   -3.5326    0.0712    0.9090 C   0  0  0  0  0  0  0  0  0  0  0  0
   -4.0619    0.8940    1.8256 F   0  0  0  0  0  0  0  0  0  0  0  0
   -3.0433    0.5711   -0.2997 C   0  0  0  0  0  0  0  0  0  0  0  0
   -3.0672    2.0248   -0.6901 C   0  0  0  0  0  0  0  0  0  0  0  0
   -2.8953    3.0005    0.3950 N   0  0  0  0  0  0  0  0  0  0  0  0
   -3.5760    4.2655    0.0140 C   0  0  0  0  0  0  0  0  0  0  0  0
   -3.0564    5.4848    0.7842 C   0  0  0  0  0  0  0  0  0  0  0  0
   -1.6733    5.7468    0.5164 O   0  0  0  0  0  0  0  0  0  0  0  0
   -0.9180    4.5594    0.2200 C   0  0  0  0  0  0  0  0  0  0  0  0
   -1.5094    3.2841    0.8724 C   0  0  0  0  0  0  0  0  0  0  0  0
   -0.4621    2.1459    0.9824 C   0  0  0  0  0  0  0  0  0  0  0  0
    0.5064    1.7257   -0.5169 S   0  0  0  0  0  0  0  0  0  0  0  0
    2.1381    1.3823    0.2796 C   0  0  0  0  0  0  0  0  0  0  0  0
    3.1893    0.5026   -0.4888 C   0  0  0  0  0  0  0  0  0  0  0  0
    3.2413    0.8778   -1.9938 C   0  0  0  0  0  0  0  0  0  0  0  0
    4.6593    0.7901   -2.5485 C   0  0  0  0  0  0  0  0  0  0  0  0
    5.5575    1.7485   -1.9000 N   0  0  0  0  0  0  0  0  0  0  0  0
    5.2946    1.9543   -0.4788 C   0  0  0  0  0  0  0  0  0  0  0  0
    4.5756    0.7831    0.1830 C   0  0  0  0  0  0  0  0  0  0  0  0
    2.8880   -0.9478   -0.3594 N   0  0  0  0  0  0  0  0  0  0  0  0
    1.7263   -1.5401    0.0414 C   0  0  0  0  0  0  0  0  0  0  0  0
    1.9166   -2.9074   -0.0007 C   0  0  0  0  0  0  0  0  0  0  0  0
    3.2378   -3.0467   -0.4559 C   0  0  0  0  0  0  0  0  0  0  0  0
    3.8289   -1.8703   -0.6858 N   0  0  0  0  0  0  0  0  0  0  0  0
    0.8766   -3.8547    0.3354 C   0  0  0  0  0  0  0  0  0  0  0  0
    1.0874   -5.1908    0.6052 C   0  0  0  0  0  0  0  0  0  0  0  0
    0.0725   -6.0372    0.9236 N   0  0  0  0  0  0  0  0  0  0  0  0
   -1.1737   -5.5119    0.9521 C   0  0  0  0  0  0  0  0  0  0  0  0
   -2.2605   -6.3147    1.2715 C   0  0  0  0  0  0  0  0  0  0  0  0
   -3.5597   -5.8043    1.3029 C   0  0  0  0  0  0  0  0  0  0  0  0
   -3.7853   -4.4646    0.9991 C   0  0  0  0  0  0  0  0  0  0  0  0
   -2.7119   -3.6265    0.6650 C   0  0  0  0  0  0  0  0  0  0  0  0
   -1.4040   -4.1483    0.6593 C   0  0  0  0  0  0  0  0  0  0  0  0
   -0.3687   -3.3385    0.3707 N   0  0  0  0  0  0  0  0  0  0  0  0
   -2.1161   -2.3907   -1.6939 H   0  0  0  0  0  0  0  0  0  0  0  0
   -3.8133   -1.6144    2.2010 H   0  0  0  0  0  0  0  0  0  0  0  0
   -2.3450    2.2352   -1.4882 H   0  0  0  0  0  0  0  0  0  0  0  0
   -4.0599    2.1622   -1.1436 H   0  0  0  0  0  0  0  0  0  0  0  0
   -4.6521    4.1547    0.1886 H   0  0  0  0  0  0  0  0  0  0  0  0
   -3.4258    4.4640   -1.0562 H   0  0  0  0  0  0  0  0  0  0  0  0
   -3.1849    5.3555    1.8651 H   0  0  0  0  0  0  0  0  0  0  0  0
   -3.6194    6.3789    0.4973 H   0  0  0  0  0  0  0  0  0  0  0  0
    0.1001    4.7438    0.5794 H   0  0  0  0  0  0  0  0  0  0  0  0
   -0.8681    4.4604   -0.8706 H   0  0  0  0  0  0  0  0  0  0  0  0
   -1.6819    3.5509    1.9267 H   0  0  0  0  0  0  0  0  0  0  0  0
    0.2608    2.4671    1.7429 H   0  0  0  0  0  0  0  0  0  0  0  0
   -0.9139    1.2322    1.3782 H   0  0  0  0  0  0  0  0  0  0  0  0
    1.9564    0.9465    1.2698 H   0  0  0  0  0  0  0  0  0  0  0  0
    2.5620    2.3780    0.4537 H   0  0  0  0  0  0  0  0  0  0  0  0
    2.5759    0.2359   -2.5849 H   0  0  0  0  0  0  0  0  0  0  0  0
    2.8951    1.9083   -2.1484 H   0  0  0  0  0  0  0  0  0  0  0  0
    5.0573   -0.2247   -2.4404 H   0  0  0  0  0  0  0  0  0  0  0  0
    4.6451    1.0064   -3.6223 H   0  0  0  0  0  0  0  0  0  0  0  0
    6.5191    1.4346   -2.0376 H   0  0  0  0  0  0  0  0  0  0  0  0
    6.2441    2.1408    0.0361 H   0  0  0  0  0  0  0  0  0  0  0  0
    4.7036    2.8699   -0.3635 H   0  0  0  0  0  0  0  0  0  0  0  0
    4.4483    0.9830    1.2549 H   0  0  0  0  0  0  0  0  0  0  0  0
    5.2465   -0.0836    0.1340 H   0  0  0  0  0  0  0  0  0  0  0  0
    0.8446   -0.9804    0.3162 H   0  0  0  0  0  0  0  0  0  0  0  0
    3.7994   -3.9513   -0.6496 H   0  0  0  0  0  0  0  0  0  0  0  0
    2.0744   -5.6376    0.5889 H   0  0  0  0  0  0  0  0  0  0  0  0
   -2.0893   -7.3640    1.5010 H   0  0  0  0  0  0  0  0  0  0  0  0
   -4.3931   -6.4558    1.5557 H   0  0  0  0  0  0  0  0  0  0  0  0
   -4.8028   -4.0786    1.0080 H   0  0  0  0  0  0  0  0  0  0  0  0
  1  2  1  0
  2  3  1  0
  3  4  2  0
  4  5  1  0
  5  6  2  0
  6  7  1  0
  6  8  1  0
  8  9  1  0
  9 10  1  0
 10 11  1  0
 11 12  1  0
 12 13  1  0
 13 14  1  0
 14 15  1  0
 15 16  1  0
 16 17  1  0
 17 18  1  0
 18 19  1  0
 19 20  1  0
 20 21  1  0
 21 22  1  0
 22 23  1  0
 23 24  1  0
 19 25  1  0
 25 26  1  0
 26 27  2  0
 27 28  1  0
 28 29  2  0
 27 30  1  0
 30 31  2  0
 31 32  1  0
 32 33  2  0
 33 34  1  0
 34 35  2  0
 35 36  1  0
 36 37  2  0
 37 38  1  0
 38 39  2  0
  8  2  2  0
 15 10  1  0
 24 19  1  0
 29 25  1  0
 39 30  1  0
 37  4  1  0
 38 33  1  0
  3 40  1  0
  5 41  1  0
  9 42  1  0
  9 43  1  0
 11 44  1  0
 11 45  1  0
 12 46  1  0
 12 47  1  0
 14 48  1  0
 14 49  1  0
 15 50  1  0
 16 51  1  0
 16 52  1  0
 18 53  1  0
 18 54  1  0
 20 55  1  0
 20 56  1  0
 21 57  1  0
 21 58  1  0
 22 59  1  0
 23 60  1  0
 23 61  1  0
 24 62  1  0
 24 63  1  0
 26 64  1  0
 28 65  1  0
 31 66  1  0
 34 67  1  0
 35 68  1  0
 36 69  1  0
M  END
>  <candidate_id>  (1) 
CAND_9f32e71b10

>  <source_generator>  (1) 
v5_3_model_guided_macrocycle

>  <parent_mol_id>  (1) 
JAK2_2dc2722230

>  <canonical_smiles>  (1) 
Fc1cc2cc(F)c1CN1CCOCC1CSCC1(CCNCC1)n1cc(cn1)-c1cnc3cccc-2c3n1

>  <inchikey>  (1) 
XOGPNLWCYTULDB-UHFFFAOYSA-N

>  <valid_rdkit>  (1) 
True

>  <unique_flag>  (1) 
True

>  <novel_flag>  (1) 
True

>  <mw>  (1) 
548.663

>  <logp>  (1) 
4.4648

>  <tpsa>  (1) 
68.1

>  <hbd>  (1) 
1

>  <hba>  (1) 
7

>  <rotatable_bonds>  (1) 
0

>  <qed>  (1) 
0.348

>  <sa_score>  (1) 
4.754

>  <murcko_scaffold>  (1) 
c1cc2c3nc(cnc3c1)-c1cnn(c1)C1(CCNCC1)CSCC1COCCN1Cc1ccc-2cc1

>  <max_ring_size>  (1) 
18

>  <has_macrocycle_12_20>  (1) 
True

>  <has_constrained_ring_8_11>  (1) 
False

>  <passes_basic_filters>  (1) 
True

>  <generation_notes>  (1) 
v5_3_model_guided_anchor_pair=16-31;anchor_scores=0.691,0.079;linker_length=3;target_ring=17;linker_prob=0.539;chemotype=thioether

$$$$
