CAND_11be2ba7cd
     RDKit          3D

 71 76  0  0  0  0  0  0  0  0999 V2000
    0.3782    1.2963   -2.5282 C   0  0  0  0  0  0  0  0  0  0  0  0
   -0.2186    1.5311   -1.3391 C   0  0  0  0  0  0  0  0  0  0  0  0
   -1.1294    2.7104   -1.0591 C   0  0  0  0  0  0  0  0  0  0  0  0
   -2.6196    2.3255   -1.0104 C   0  0  0  0  0  0  0  0  0  0  0  0
   -3.1101    1.9212    0.3921 C   0  0  0  0  0  0  0  0  0  0  0  0
   -3.8444    0.5714    0.4167 C   0  0  0  0  0  0  0  0  0  0  0  0
   -5.1387    0.5792   -0.3989 C   0  0  0  0  0  0  0  0  0  0  0  0
   -6.0090   -0.5019    0.2361 C   0  0  0  0  0  0  0  0  0  0  0  0
   -5.2813   -0.9135    1.5094 C   0  0  0  0  0  0  0  0  0  0  0  0
   -4.3511    0.1881    1.7425 N   0  0  0  0  0  0  0  0  0  0  0  0
   -3.3530   -0.0792    2.7822 C   0  0  0  0  0  0  0  0  0  0  0  0
   -2.3536   -1.2318    2.5682 C   0  0  0  0  0  0  0  0  0  0  0  0
   -1.2723   -1.0645    3.5058 O   0  0  0  0  0  0  0  0  0  0  0  0
   -0.0985   -1.5473    2.9910 C   0  0  0  0  0  0  0  0  0  0  0  0
    0.2097   -2.8929    3.1818 C   0  0  0  0  0  0  0  0  0  0  0  0
    1.4042   -3.4145    2.6735 C   0  0  0  0  0  0  0  0  0  0  0  0
    2.3172   -2.6018    1.9867 C   0  0  0  0  0  0  0  0  0  0  0  0
    2.0017   -1.2426    1.8520 C   0  0  0  0  0  0  0  0  0  0  0  0
    0.7982   -0.6974    2.3363 C   0  0  0  0  0  0  0  0  0  0  0  0
    0.5233    0.7766    2.1501 C   0  0  0  0  0  0  0  0  0  0  0  0
    0.7760    1.2682    0.8282 O   0  0  0  0  0  0  0  0  0  0  0  0
    0.0395    0.5883   -0.1846 C   0  0  0  0  0  0  0  0  0  0  0  0
    3.4468   -3.1891    1.4020 N   0  0  0  0  0  0  0  0  0  0  0  0
    4.2791   -2.7705    0.3654 C   0  0  0  0  0  0  0  0  0  0  0  0
    5.2621   -3.6127    0.0106 N   0  0  0  0  0  0  0  0  0  0  0  0
    6.0280   -3.2570   -1.0421 C   0  0  0  0  0  0  0  0  0  0  0  0
    5.8501   -2.1026   -1.7630 C   0  0  0  0  0  0  0  0  0  0  0  0
    4.8266   -1.3032   -1.3221 C   0  0  0  0  0  0  0  0  0  0  0  0
    4.0523   -1.6176   -0.2681 N   0  0  0  0  0  0  0  0  0  0  0  0
    4.4496   -0.0383   -1.9437 C   0  0  0  0  0  0  0  0  0  0  0  0
    4.3217    1.1986   -1.3418 C   0  0  0  0  0  0  0  0  0  0  0  0
    3.7411    2.1662   -2.2079 C   0  0  0  0  0  0  0  0  0  0  0  0
    3.3985    1.6283   -3.4331 C   0  0  0  0  0  0  0  0  0  0  0  0
    3.9661    0.0169   -3.5860 S   0  0  0  0  0  0  0  0  0  0  0  0
    2.6044    2.2627   -4.5316 C   0  0  0  0  0  0  0  0  0  0  0  0
    1.4616    2.9126   -3.9616 O   0  0  0  0  0  0  0  0  0  0  0  0
    0.3095    2.0828   -3.8035 C   0  0  0  0  0  0  0  0  0  0  0  0
    1.0124    0.4145   -2.6007 H   0  0  0  0  0  0  0  0  0  0  0  0
   -1.0035    3.4698   -1.8389 H   0  0  0  0  0  0  0  0  0  0  0  0
   -0.8242    3.2115   -0.1326 H   0  0  0  0  0  0  0  0  0  0  0  0
   -2.8253    1.5430   -1.7503 H   0  0  0  0  0  0  0  0  0  0  0  0
   -3.2038    3.2007   -1.3234 H   0  0  0  0  0  0  0  0  0  0  0  0
   -3.7789    2.7071    0.7678 H   0  0  0  0  0  0  0  0  0  0  0  0
   -2.2674    1.8970    1.0883 H   0  0  0  0  0  0  0  0  0  0  0  0
   -3.1906   -0.2115    0.0133 H   0  0  0  0  0  0  0  0  0  0  0  0
   -5.6509    1.5471   -0.3308 H   0  0  0  0  0  0  0  0  0  0  0  0
   -4.9582    0.3711   -1.4585 H   0  0  0  0  0  0  0  0  0  0  0  0
   -7.0039   -0.1001    0.4586 H   0  0  0  0  0  0  0  0  0  0  0  0
   -6.1343   -1.3571   -0.4364 H   0  0  0  0  0  0  0  0  0  0  0  0
   -5.9784   -1.0457    2.3428 H   0  0  0  0  0  0  0  0  0  0  0  0
   -4.7603   -1.8629    1.3384 H   0  0  0  0  0  0  0  0  0  0  0  0
   -3.8793   -0.2640    3.7287 H   0  0  0  0  0  0  0  0  0  0  0  0
   -2.7980    0.8451    2.9817 H   0  0  0  0  0  0  0  0  0  0  0  0
   -2.8377   -2.1954    2.7644 H   0  0  0  0  0  0  0  0  0  0  0  0
   -1.9835   -1.2386    1.5384 H   0  0  0  0  0  0  0  0  0  0  0  0
   -0.4799   -3.5398    3.7163 H   0  0  0  0  0  0  0  0  0  0  0  0
    1.6070   -4.4745    2.8043 H   0  0  0  0  0  0  0  0  0  0  0  0
    2.6933   -0.5679    1.3515 H   0  0  0  0  0  0  0  0  0  0  0  0
   -0.5022    1.0425    2.4174 H   0  0  0  0  0  0  0  0  0  0  0  0
    1.1746    1.3351    2.8321 H   0  0  0  0  0  0  0  0  0  0  0  0
    0.6204   -0.2829   -0.5076 H   0  0  0  0  0  0  0  0  0  0  0  0
   -0.9138    0.2173    0.1938 H   0  0  0  0  0  0  0  0  0  0  0  0
    3.7156   -4.1096    1.7126 H   0  0  0  0  0  0  0  0  0  0  0  0
    6.8143   -3.9614   -1.2987 H   0  0  0  0  0  0  0  0  0  0  0  0
    6.4750   -1.8463   -2.6059 H   0  0  0  0  0  0  0  0  0  0  0  0
    4.5655    1.3803   -0.3016 H   0  0  0  0  0  0  0  0  0  0  0  0
    3.4844    3.1772   -1.9126 H   0  0  0  0  0  0  0  0  0  0  0  0
    3.2166    3.0402   -5.0017 H   0  0  0  0  0  0  0  0  0  0  0  0
    2.3034    1.5605   -5.3168 H   0  0  0  0  0  0  0  0  0  0  0  0
   -0.5639    2.7408   -3.8128 H   0  0  0  0  0  0  0  0  0  0  0  0
    0.1895    1.4110   -4.6614 H   0  0  0  0  0  0  0  0  0  0  0  0
  1  2  2  0
  2  3  1  0
  3  4  1  0
  4  5  1  0
  5  6  1  0
  6  7  1  0
  7  8  1  0
  8  9  1  0
  9 10  1  0
 10 11  1  0
 11 12  1  0
 12 13  1  0
 13 14  1  0
 14 15  2  0
 15 16  1  0
 16 17  2  0
 17 18  1  0
 18 19  2  0
 19 20  1  0
 20 21  1  0
 21 22  1  0
 17 23  1  0
 23 24  1  0
 24 25  1  0
 25 26  2  0
 26 27  1  0
 27 28  2  0
 28 29  1  0
 28 30  1  0
 30 31  2  0
 31 32  1  0
 32 33  2  0
 33 34  1  0
 33 35  1  0
 35 36  1  0
 36 37  1  0
 37  1  1  0
 22  2  1  0
 29 24  2  0
 34 30  1  0
 10  6  1  0
 19 14  1  0
  1 38  1  0
  3 39  1  0
  3 40  1  0
  4 41  1  0
  4 42  1  0
  5 43  1  0
  5 44  1  0
  6 45  1  0
  7 46  1  0
  7 47  1  0
  8 48  1  0
  8 49  1  0
  9 50  1  0
  9 51  1  0
 11 52  1  0
 11 53  1  0
 12 54  1  0
 12 55  1  0
 15 56  1  0
 16 57  1  0
 18 58  1  0
 20 59  1  0
 20 60  1  0
 22 61  1  0
 22 62  1  0
 23 63  1  0
 26 64  1  0
 27 65  1  0
 31 66  1  0
 32 67  1  0
 35 68  1  0
 35 69  1  0
 37 70  1  0
 37 71  1  0
M  END
>  <candidate_id>  (1) 
CAND_11be2ba7cd

>  <source_generator>  (1) 
v5_3_model_guided_macrocycle

>  <parent_mol_id>  (1) 
JAK2_522c241c10

>  <canonical_smiles>  (1) 
C1=C2\CCCC3CCCN3CCOc3ccc(cc3COC2)Nc2nccc(n2)-c2ccc(s2)COC/1

>  <inchikey>  (1) 
INFVSFQAZWZRHB-SRZZPIQSSA-N

>  <valid_rdkit>  (1) 
True

>  <unique_flag>  (1) 
True

>  <novel_flag>  (1) 
True

>  <mw>  (1) 
518.683

>  <logp>  (1) 
5.949

>  <tpsa>  (1) 
68.74

>  <hbd>  (1) 
1

>  <hba>  (1) 
8

>  <rotatable_bonds>  (1) 
0

>  <qed>  (1) 
0.369

>  <sa_score>  (1) 
5.062

>  <murcko_scaffold>  (1) 
C1=C2\CCCC3CCCN3CCOc3ccc(cc3COC2)Nc2nccc(n2)-c2ccc(s2)COC/1

>  <max_ring_size>  (1) 
18

>  <has_macrocycle_12_20>  (1) 
True

>  <has_constrained_ring_8_11>  (1) 
False

>  <passes_basic_filters>  (1) 
True

>  <generation_notes>  (1) 
v5_3_model_guided_anchor_pair=1-15;anchor_scores=0.312,0.079;linker_length=3;target_ring=13;linker_prob=0.455;chemotype=oxa_aza

$$$$
