CAND_1ec7ae5d21
     RDKit          3D

 70 76  0  0  0  0  0  0  0  0999 V2000
    6.8722   -0.2938    2.4988 N   0  0  0  0  0  0  0  0  0  0  0  0
    5.7997    0.4438    2.0867 C   0  0  0  0  0  0  0  0  0  0  0  0
    5.4941    1.4787    2.6719 O   0  0  0  0  0  0  0  0  0  0  0  0
    5.0209   -0.0172    0.9195 C   0  0  0  0  0  0  0  0  0  0  0  0
    5.1569   -1.2543    0.3006 C   0  0  0  0  0  0  0  0  0  0  0  0
    4.3830   -1.7173   -0.7183 N   0  0  0  0  0  0  0  0  0  0  0  0
    3.3934   -0.9373   -1.2098 C   0  0  0  0  0  0  0  0  0  0  0  0
    3.2837    0.3923   -0.7483 C   0  0  0  0  0  0  0  0  0  0  0  0
    4.0288    0.7922    0.3589 C   0  0  0  0  0  0  0  0  0  0  0  0
    3.5376    2.0234    0.7497 N   0  0  0  0  0  0  0  0  0  0  0  0
    2.4710    2.3862   -0.0399 C   0  0  0  0  0  0  0  0  0  0  0  0
    1.4724    3.3589    0.1316 C   0  0  0  0  0  0  0  0  0  0  0  0
    0.4190    3.3743   -0.8097 C   0  0  0  0  0  0  0  0  0  0  0  0
    0.6155    2.7094   -2.0380 C   0  0  0  0  0  0  0  0  0  0  0  0
    1.6207    1.7594   -2.1980 C   0  0  0  0  0  0  0  0  0  0  0  0
    2.4634    1.4997   -1.1116 C   0  0  0  0  0  0  0  0  0  0  0  0
   -0.9805    3.7297   -0.4370 C   0  0  0  0  0  0  0  0  0  0  0  0
   -1.4095    3.7577    0.8810 C   0  0  0  0  0  0  0  0  0  0  0  0
   -2.6486    3.1869    1.1900 C   0  0  0  0  0  0  0  0  0  0  0  0
   -3.3924    2.5947    0.1792 C   0  0  0  0  0  0  0  0  0  0  0  0
   -3.0822    2.9046   -1.0930 N   0  0  0  0  0  0  0  0  0  0  0  0
   -1.8908    3.4938   -1.4039 N   0  0  0  0  0  0  0  0  0  0  0  0
   -4.2954    1.5550    0.4117 N   0  0  0  0  0  0  0  0  0  0  0  0
   -4.7834    1.2686    1.7644 C   0  0  0  0  0  0  0  0  0  0  0  0
   -5.6123    0.0031    1.8053 C   0  0  0  0  0  0  0  0  0  0  0  0
   -4.5882   -1.3858    1.3508 S   0  0  0  0  0  0  0  0  0  0  0  0
   -3.8045   -1.7499    2.5175 O   0  0  0  0  0  0  0  0  0  0  0  0
   -5.4532   -2.3619    0.7146 O   0  0  0  0  0  0  0  0  0  0  0  0
   -3.4512   -0.7227    0.1152 C   0  0  0  0  0  0  0  0  0  0  0  0
   -2.9598   -1.8311   -0.8299 C   0  0  0  0  0  0  0  0  0  0  0  0
   -1.8239   -1.4611   -1.8010 C   0  0  0  0  0  0  0  0  0  0  0  0
   -0.5603   -0.7985   -1.2296 C   0  0  0  0  0  0  0  0  0  0  0  0
    0.4430   -1.7307   -0.5419 C   0  0  0  0  0  0  0  0  0  0  0  0
   -0.0298   -2.4158    0.7419 C   0  0  0  0  0  0  0  0  0  0  0  0
    0.9560   -1.3023    0.8310 C   0  0  0  0  0  0  0  0  0  0  0  0
    1.4451   -2.4340   -1.5164 C   0  0  2  0  0  0  0  0  0  0  0  0
    2.0128   -3.8029   -1.0362 C   0  0  0  0  0  0  0  0  0  0  0  0
    1.0170   -4.7219   -0.9349 F   0  0  0  0  0  0  0  0  0  0  0  0
    2.6406   -3.7599    0.1569 F   0  0  0  0  0  0  0  0  0  0  0  0
    2.8897   -4.2984   -1.9489 F   0  0  0  0  0  0  0  0  0  0  0  0
    2.4880   -1.5138   -2.0948 N   0  0  0  0  0  0  0  0  0  0  0  0
   -4.1854    0.4366   -0.5577 C   0  0  0  0  0  0  0  0  0  0  0  0
    7.2183   -1.1313    2.0562 H   0  0  0  0  0  0  0  0  0  0  0  0
    7.3840    0.0530    3.3012 H   0  0  0  0  0  0  0  0  0  0  0  0
    5.8918   -1.9797    0.6341 H   0  0  0  0  0  0  0  0  0  0  0  0
    3.8485    2.5005    1.5888 H   0  0  0  0  0  0  0  0  0  0  0  0
    1.4289    3.9266    1.0547 H   0  0  0  0  0  0  0  0  0  0  0  0
   -0.1331    2.7694   -2.8286 H   0  0  0  0  0  0  0  0  0  0  0  0
    1.6397    1.1277   -3.0817 H   0  0  0  0  0  0  0  0  0  0  0  0
   -0.7390    4.0046    1.6962 H   0  0  0  0  0  0  0  0  0  0  0  0
   -2.8997    3.0616    2.2361 H   0  0  0  0  0  0  0  0  0  0  0  0
   -5.3907    2.1115    2.1140 H   0  0  0  0  0  0  0  0  0  0  0  0
   -3.9432    1.1480    2.4591 H   0  0  0  0  0  0  0  0  0  0  0  0
   -5.9990   -0.1893    2.8104 H   0  0  0  0  0  0  0  0  0  0  0  0
   -6.4554    0.0481    1.1089 H   0  0  0  0  0  0  0  0  0  0  0  0
   -2.6016   -0.3421    0.6940 H   0  0  0  0  0  0  0  0  0  0  0  0
   -2.6468   -2.7005   -0.2409 H   0  0  0  0  0  0  0  0  0  0  0  0
   -3.8070   -2.1868   -1.4313 H   0  0  0  0  0  0  0  0  0  0  0  0
   -1.5413   -2.3655   -2.3536 H   0  0  0  0  0  0  0  0  0  0  0  0
   -2.2428   -0.7747   -2.5480 H   0  0  0  0  0  0  0  0  0  0  0  0
   -0.0478   -0.3411   -2.0804 H   0  0  0  0  0  0  0  0  0  0  0  0
   -0.8324    0.0331   -0.5712 H   0  0  0  0  0  0  0  0  0  0  0  0
   -1.0060   -2.2077    1.1644 H   0  0  0  0  0  0  0  0  0  0  0  0
    0.3123   -3.4115    1.0013 H   0  0  0  0  0  0  0  0  0  0  0  0
    0.6241   -0.3520    1.2361 H   0  0  0  0  0  0  0  0  0  0  0  0
    1.9556   -1.5710    1.1545 H   0  0  0  0  0  0  0  0  0  0  0  0
    0.8364   -2.7048   -2.3894 H   0  0  0  0  0  0  0  0  0  0  0  0
    3.0352   -2.0245   -2.7882 H   0  0  0  0  0  0  0  0  0  0  0  0
   -3.6692    0.7199   -1.4800 H   0  0  0  0  0  0  0  0  0  0  0  0
   -5.1928    0.1400   -0.8761 H   0  0  0  0  0  0  0  0  0  0  0  0
  1  2  1  0
  2  3  2  0
  2  4  1  0
  4  5  2  0
  5  6  1  0
  6  7  2  0
  7  8  1  0
  8  9  2  0
  9 10  1  0
 10 11  1  0
 11 12  2  0
 12 13  1  0
 13 14  2  0
 14 15  1  0
 15 16  2  0
 13 17  1  0
 17 18  2  0
 18 19  1  0
 19 20  2  0
 20 21  1  0
 21 22  2  0
 20 23  1  0
 23 24  1  0
 24 25  1  0
 25 26  1  0
 26 27  2  0
 26 28  2  0
 26 29  1  0
 29 30  1  0
 30 31  1  0
 31 32  1  0
 32 33  1  0
 33 34  1  0
 34 35  1  0
 33 36  1  0
 36 37  1  0
 37 38  1  0
 37 39  1  0
 37 40  1  0
 36 41  1  0
 29 42  1  0
  9  4  1  0
 16 11  1  0
 22 17  1  0
 42 23  1  0
 41  7  1  0
 16  8  1  0
 35 33  1  0
  1 43  1  0
  1 44  1  0
  5 45  1  0
 10 46  1  0
 12 47  1  0
 14 48  1  0
 15 49  1  0
 18 50  1  0
 19 51  1  0
 24 52  1  0
 24 53  1  0
 25 54  1  0
 25 55  1  0
 29 56  1  0
 30 57  1  0
 30 58  1  0
 31 59  1  0
 31 60  1  0
 32 61  1  0
 32 62  1  0
 34 63  1  0
 34 64  1  0
 35 65  1  0
 35 66  1  0
 36 67  1  6
 41 68  1  0
 42 69  1  0
 42 70  1  0
M  END
>  <candidate_id>  (1) 
CAND_1ec7ae5d21

>  <source_generator>  (1) 
v5_3_model_guided_macrocycle

>  <parent_mol_id>  (1) 
JAK2_b8536fbab5

>  <canonical_smiles>  (1) 
NC(=O)c1cnc2c3c1[nH]c1cc(ccc13)-c1ccc(nn1)N1CCS(=O)(=O)C(CCCC3(CC3)[C@H](C(F)(F)F)N2)C1

>  <inchikey>  (1) 
VUSYNXZVOKNMIM-IIVOFZELSA-N

>  <valid_rdkit>  (1) 
True

>  <unique_flag>  (1) 
True

>  <novel_flag>  (1) 
True

>  <mw>  (1) 
599.639

>  <logp>  (1) 
4.1823

>  <tpsa>  (1) 
146.96

>  <hbd>  (1) 
3

>  <hba>  (1) 
8

>  <rotatable_bonds>  (1) 
1

>  <qed>  (1) 
0.2953

>  <sa_score>  (1) 
5.412

>  <murcko_scaffold>  (1) 
O=S1(=O)CCN2CC1CCCC1(CC1)CNc1nccc3[nH]c4cc(ccc4c13)-c1ccc2nn1

>  <max_ring_size>  (1) 
19

>  <has_macrocycle_12_20>  (1) 
True

>  <has_constrained_ring_8_11>  (1) 
False

>  <passes_basic_filters>  (1) 
True

>  <generation_notes>  (1) 
v5_3_model_guided_anchor_pair=9-28;anchor_scores=0.691,0.079;linker_length=3;target_ring=18;linker_prob=0.649;chemotype=alkyl

$$$$
