CAND_97556b1c56
     RDKit          3D

 52 57  0  0  0  0  0  0  0  0999 V2000
    4.5828    2.1477    2.8290 N   0  0  0  0  0  0  0  0  0  0  0  0
    4.4007    1.7388    1.7587 C   0  0  0  0  0  0  0  0  0  0  0  0
    4.1575    1.2324    0.4304 C   0  0  0  0  0  0  0  0  0  0  0  0
    4.6809   -0.1834    0.1528 C   0  0  0  0  0  0  0  0  0  0  0  0
    3.3525   -0.4955   -0.3424 N   0  0  0  0  0  0  0  0  0  0  0  0
    2.9133   -1.6555   -0.9192 C   0  0  0  0  0  0  0  0  0  0  0  0
    3.6967   -2.5966   -1.0876 O   0  0  0  0  0  0  0  0  0  0  0  0
    1.3904   -1.8460   -1.1503 C   0  0  2  0  0  0  0  0  0  0  0  0
    0.6475   -0.6394   -1.4343 N   0  0  0  0  0  0  0  0  0  0  0  0
    0.7273    0.0356   -2.6284 C   0  0  0  0  0  0  0  0  0  0  0  0
    1.5280   -0.2457   -3.5115 O   0  0  0  0  0  0  0  0  0  0  0  0
   -0.2299    1.1280   -2.7393 C   0  0  0  0  0  0  0  0  0  0  0  0
   -0.4413    1.9486   -3.8389 C   0  0  0  0  0  0  0  0  0  0  0  0
   -1.4737    2.8134   -3.5469 N   0  0  0  0  0  0  0  0  0  0  0  0
   -1.9345    2.5659   -2.2835 C   0  0  0  0  0  0  0  0  0  0  0  0
   -2.9594    3.1753   -1.6604 N   0  0  0  0  0  0  0  0  0  0  0  0
   -3.1613    2.6260   -0.4242 C   0  0  0  0  0  0  0  0  0  0  0  0
   -2.4045    1.5989    0.1694 C   0  0  0  0  0  0  0  0  0  0  0  0
   -1.3472    1.0766   -0.4986 N   0  0  0  0  0  0  0  0  0  0  0  0
   -1.1575    1.5518   -1.7541 C   0  0  0  0  0  0  0  0  0  0  0  0
   -2.6945    1.0023    1.5636 C   0  0  0  0  0  0  0  0  0  0  0  0
   -4.0075    1.2697    2.2862 C   0  0  0  0  0  0  0  0  0  0  0  0
   -2.7654    1.9825    2.7302 C   0  0  0  0  0  0  0  0  0  0  0  0
   -2.0186   -0.3426    1.8428 C   0  0  0  0  0  0  0  0  0  0  0  0
   -2.8044   -1.6668    0.8722 S   0  0  0  0  0  0  0  0  0  0  0  0
   -1.6055   -3.0003    1.1455 C   0  0  0  0  0  0  0  0  0  0  0  0
   -0.6420   -3.0819   -0.0004 C   0  0  0  0  0  0  0  0  0  0  0  0
    0.5669   -3.9782    0.1343 C   0  0  0  0  0  0  0  0  0  0  0  0
    0.7536   -2.4836    0.0717 C   0  0  0  0  0  0  0  0  0  0  0  0
    2.7348    0.6989    0.1857 C   0  0  0  0  0  0  0  0  0  0  0  0
    4.4684    1.9426   -0.3484 H   0  0  0  0  0  0  0  0  0  0  0  0
    5.4610   -0.2477   -0.6105 H   0  0  0  0  0  0  0  0  0  0  0  0
    4.9545   -0.7884    1.0232 H   0  0  0  0  0  0  0  0  0  0  0  0
    1.2862   -2.4982   -2.0270 H   0  0  0  0  0  0  0  0  0  0  0  0
   -0.0879   -0.3626   -0.7877 H   0  0  0  0  0  0  0  0  0  0  0  0
    0.0431    1.9709   -4.8072 H   0  0  0  0  0  0  0  0  0  0  0  0
   -1.8653    3.5098   -4.1653 H   0  0  0  0  0  0  0  0  0  0  0  0
   -3.9987    3.0683    0.1068 H   0  0  0  0  0  0  0  0  0  0  0  0
   -4.4058    0.4940    2.9343 H   0  0  0  0  0  0  0  0  0  0  0  0
   -4.7904    1.8409    1.8035 H   0  0  0  0  0  0  0  0  0  0  0  0
   -2.6912    3.0469    2.5340 H   0  0  0  0  0  0  0  0  0  0  0  0
   -2.3282    1.6951    3.6809 H   0  0  0  0  0  0  0  0  0  0  0  0
   -2.1137   -0.6075    2.9020 H   0  0  0  0  0  0  0  0  0  0  0  0
   -0.9480   -0.2855    1.6195 H   0  0  0  0  0  0  0  0  0  0  0  0
   -2.1672   -3.9389    1.1967 H   0  0  0  0  0  0  0  0  0  0  0  0
   -1.0991   -2.8720    2.1079 H   0  0  0  0  0  0  0  0  0  0  0  0
   -1.1486   -3.1149   -0.9612 H   0  0  0  0  0  0  0  0  0  0  0  0
    0.7561   -4.4699    1.0826 H   0  0  0  0  0  0  0  0  0  0  0  0
    0.8552   -4.5751   -0.7254 H   0  0  0  0  0  0  0  0  0  0  0  0
    1.0385   -1.9793    0.9892 H   0  0  0  0  0  0  0  0  0  0  0  0
    2.1732    1.2934   -0.5371 H   0  0  0  0  0  0  0  0  0  0  0  0
    2.1224    0.5009    1.0709 H   0  0  0  0  0  0  0  0  0  0  0  0
  1  2  3  0
  2  3  1  0
  3  4  1  0
  4  5  1  0
  5  6  1  0
  6  7  2  0
  6  8  1  0
  8  9  1  0
  9 10  1  0
 10 11  2  0
 10 12  1  0
 12 13  2  0
 13 14  1  0
 14 15  1  0
 15 16  2  0
 16 17  1  0
 17 18  2  0
 18 19  1  0
 19 20  2  0
 18 21  1  0
 21 22  1  0
 22 23  1  0
 21 24  1  0
 24 25  1  0
 25 26  1  0
 26 27  1  0
 27 28  1  0
 28 29  1  0
  5 30  1  0
 30  3  1  0
 29  8  1  0
 20 12  1  0
 23 21  1  0
 29 27  1  0
 20 15  1  0
  3 31  1  0
  4 32  1  0
  4 33  1  0
  8 34  1  6
  9 35  1  0
 13 36  1  0
 14 37  1  0
 17 38  1  0
 22 39  1  0
 22 40  1  0
 23 41  1  0
 23 42  1  0
 24 43  1  0
 24 44  1  0
 26 45  1  0
 26 46  1  0
 27 47  1  0
 28 48  1  0
 28 49  1  0
 29 50  1  0
 30 51  1  0
 30 52  1  0
M  END
>  <candidate_id>  (1) 
CAND_97556b1c56

>  <source_generator>  (1) 
v5_3_model_guided_macrocycle

>  <parent_mol_id>  (1) 
JAK2_c385760536

>  <canonical_smiles>  (1) 
N#CC1CN(C(=O)[C@@H]2NC(=O)c3c[nH]c4ncc(nc34)C3(CC3)CSCC3CC32)C1

>  <inchikey>  (1) 
XGPLTYNGABJAJS-QWQCLYJRSA-N

>  <valid_rdkit>  (1) 
True

>  <unique_flag>  (1) 
True

>  <novel_flag>  (1) 
True

>  <mw>  (1) 
422.514

>  <logp>  (1) 
1.4528

>  <tpsa>  (1) 
114.77

>  <hbd>  (1) 
2

>  <hba>  (1) 
6

>  <rotatable_bonds>  (1) 
1

>  <qed>  (1) 
0.7189

>  <sa_score>  (1) 
4.678

>  <murcko_scaffold>  (1) 
O=C1N[C@@H](C(=O)N2CCC2)C2CC2CSCC2(CC2)c2cnc3[nH]cc1c3n2

>  <max_ring_size>  (1) 
13

>  <has_macrocycle_12_20>  (1) 
True

>  <has_constrained_ring_8_11>  (1) 
False

>  <passes_basic_filters>  (1) 
True

>  <generation_notes>  (1) 
v5_3_model_guided_anchor_pair=18-24;anchor_scores=0.691,0.079;linker_length=3;target_ring=12;linker_prob=0.264;chemotype=thioether

$$$$
