CAND_9b2dbc98ed
     RDKit          3D

 75 81  0  0  0  0  0  0  0  0999 V2000
    6.8397    2.6748   -0.7277 C   0  0  0  0  0  0  0  0  0  0  0  0
    6.0237    1.4727   -0.8885 N   0  0  0  0  0  0  0  0  0  0  0  0
    6.1288    0.6112    0.3078 C   0  0  0  0  0  0  0  0  0  0  0  0
    5.2732   -0.6677    0.1931 C   0  0  0  0  0  0  0  0  0  0  0  0
    3.8692   -0.3498   -0.1098 N   0  0  0  0  0  0  0  0  0  0  0  0
    3.0206   -1.4517   -0.0347 C   0  0  0  0  0  0  0  0  0  0  0  0
    2.6857   -1.9693    1.2158 C   0  0  0  0  0  0  0  0  0  0  0  0
    1.7091   -2.9597    1.3179 C   0  0  0  0  0  0  0  0  0  0  0  0
    1.0784   -3.4250    0.1656 C   0  0  0  0  0  0  0  0  0  0  0  0
    1.5174   -2.8971   -1.0419 C   0  0  0  0  0  0  0  0  0  0  0  0
    2.4757   -1.9485   -1.1643 N   0  0  0  0  0  0  0  0  0  0  0  0
   -0.0946   -4.2769    0.2222 C   0  0  0  0  0  0  0  0  0  0  0  0
   -0.0791   -5.6570    0.2125 C   0  0  0  0  0  0  0  0  0  0  0  0
   -1.2165   -6.3939    0.2463 N   0  0  0  0  0  0  0  0  0  0  0  0
   -2.3821   -5.7122    0.2937 C   0  0  0  0  0  0  0  0  0  0  0  0
   -3.5818   -6.4093    0.3200 C   0  0  0  0  0  0  0  0  0  0  0  0
   -4.8077   -5.7463    0.3646 C   0  0  0  0  0  0  0  0  0  0  0  0
   -4.8386   -4.3557    0.3885 C   0  0  0  0  0  0  0  0  0  0  0  0
   -3.6439   -3.6178    0.3693 C   0  0  0  0  0  0  0  0  0  0  0  0
   -2.4127   -4.2967    0.3143 C   0  0  0  0  0  0  0  0  0  0  0  0
   -1.2608   -3.5988    0.2733 N   0  0  0  0  0  0  0  0  0  0  0  0
   -3.6837   -2.1415    0.4083 C   0  0  0  0  0  0  0  0  0  0  0  0
   -4.2305   -1.3999   -0.6474 C   0  0  0  0  0  0  0  0  0  0  0  0
   -4.2024   -0.0037   -0.6209 C   0  0  0  0  0  0  0  0  0  0  0  0
   -4.7461    0.6645   -1.6491 F   0  0  0  0  0  0  0  0  0  0  0  0
   -3.6432    0.7005    0.4465 C   0  0  0  0  0  0  0  0  0  0  0  0
   -3.1116   -0.0411    1.4975 C   0  0  0  0  0  0  0  0  0  0  0  0
   -2.5738    0.5860    2.5531 F   0  0  0  0  0  0  0  0  0  0  0  0
   -3.1286   -1.4354    1.4880 C   0  0  0  0  0  0  0  0  0  0  0  0
   -3.6412    2.2029    0.4687 C   0  0  0  0  0  0  0  0  0  0  0  0
   -2.5999    2.8042   -0.3932 N   0  0  0  0  0  0  0  0  0  0  0  0
   -3.0369    4.0808   -0.9675 C   0  0  0  0  0  0  0  0  0  0  0  0
   -3.2570    5.1885    0.0447 C   0  0  0  0  0  0  0  0  0  0  0  0
   -1.8283    5.3950    1.0760 S   0  0  0  0  0  0  0  0  0  0  0  0
   -1.3112    6.7321    0.8472 O   0  0  0  0  0  0  0  0  0  0  0  0
   -2.1733    4.9583    2.4158 O   0  0  0  0  0  0  0  0  0  0  0  0
   -0.6565    4.2507    0.4033 C   0  0  0  0  0  0  0  0  0  0  0  0
   -1.2554    2.8457    0.2535 C   0  0  0  0  0  0  0  0  0  0  0  0
   -0.3132    1.9438   -0.5910 C   0  0  0  0  0  0  0  0  0  0  0  0
    1.4066    1.8619    0.0367 S   0  0  0  0  0  0  0  0  0  0  0  0
    2.1941    1.0676   -1.4235 C   0  0  0  0  0  0  0  0  0  0  0  0
    3.6652    0.5933   -1.2421 C   0  0  0  0  0  0  0  0  0  0  0  0
    4.5988    1.8341   -1.0800 C   0  0  0  0  0  0  0  0  0  0  0  0
    7.8952    2.4072   -0.6068 H   0  0  0  0  0  0  0  0  0  0  0  0
    6.5352    3.2743    0.1379 H   0  0  0  0  0  0  0  0  0  0  0  0
    6.7749    3.3039   -1.6223 H   0  0  0  0  0  0  0  0  0  0  0  0
    7.1737    0.3100    0.4511 H   0  0  0  0  0  0  0  0  0  0  0  0
    5.8223    1.1654    1.2056 H   0  0  0  0  0  0  0  0  0  0  0  0
    5.3598   -1.2160    1.1391 H   0  0  0  0  0  0  0  0  0  0  0  0
    5.6835   -1.3091   -0.5985 H   0  0  0  0  0  0  0  0  0  0  0  0
    3.1187   -1.5419    2.1144 H   0  0  0  0  0  0  0  0  0  0  0  0
    1.3927   -3.2988    2.3009 H   0  0  0  0  0  0  0  0  0  0  0  0
    1.0599   -3.1942   -1.9826 H   0  0  0  0  0  0  0  0  0  0  0  0
    0.8464   -6.2207    0.1718 H   0  0  0  0  0  0  0  0  0  0  0  0
   -3.5588   -7.4966    0.3035 H   0  0  0  0  0  0  0  0  0  0  0  0
   -5.7340   -6.3157    0.3845 H   0  0  0  0  0  0  0  0  0  0  0  0
   -5.7988   -3.8449    0.4340 H   0  0  0  0  0  0  0  0  0  0  0  0
   -4.6622   -1.8956   -1.5128 H   0  0  0  0  0  0  0  0  0  0  0  0
   -2.6806   -1.9651    2.3255 H   0  0  0  0  0  0  0  0  0  0  0  0
   -3.5752    2.5811    1.4971 H   0  0  0  0  0  0  0  0  0  0  0  0
   -4.6391    2.5114    0.1256 H   0  0  0  0  0  0  0  0  0  0  0  0
   -3.9625    3.9272   -1.5370 H   0  0  0  0  0  0  0  0  0  0  0  0
   -2.3050    4.4010   -1.7202 H   0  0  0  0  0  0  0  0  0  0  0  0
   -3.4419    6.1370   -0.4686 H   0  0  0  0  0  0  0  0  0  0  0  0
   -4.1119    4.9802    0.6952 H   0  0  0  0  0  0  0  0  0  0  0  0
    0.1935    4.2563    1.0935 H   0  0  0  0  0  0  0  0  0  0  0  0
   -0.3166    4.6579   -0.5556 H   0  0  0  0  0  0  0  0  0  0  0  0
   -1.3171    2.4141    1.2609 H   0  0  0  0  0  0  0  0  0  0  0  0
   -0.7023    0.9201   -0.6227 H   0  0  0  0  0  0  0  0  0  0  0  0
   -0.2763    2.3215   -1.6198 H   0  0  0  0  0  0  0  0  0  0  0  0
    1.5532    0.2370   -1.7291 H   0  0  0  0  0  0  0  0  0  0  0  0
    2.1603    1.7965   -2.2418 H   0  0  0  0  0  0  0  0  0  0  0  0
    3.9637    0.0845   -2.1705 H   0  0  0  0  0  0  0  0  0  0  0  0
    4.5086    2.4521   -1.9824 H   0  0  0  0  0  0  0  0  0  0  0  0
    4.2652    2.4468   -0.2325 H   0  0  0  0  0  0  0  0  0  0  0  0
  1  2  1  0
  2  3  1  0
  3  4  1  0
  4  5  1  0
  5  6  1  0
  6  7  2  0
  7  8  1  0
  8  9  2  0
  9 10  1  0
 10 11  2  0
  9 12  1  0
 12 13  2  0
 13 14  1  0
 14 15  2  0
 15 16  1  0
 16 17  2  0
 17 18  1  0
 18 19  2  0
 19 20  1  0
 20 21  2  0
 19 22  1  0
 22 23  2  0
 23 24  1  0
 24 25  1  0
 24 26  2  0
 26 27  1  0
 27 28  1  0
 27 29  2  0
 26 30  1  0
 30 31  1  0
 31 32  1  0
 32 33  1  0
 33 34  1  0
 34 35  2  0
 34 36  2  0
 34 37  1  0
 37 38  1  0
 38 39  1  0
 39 40  1  0
 40 41  1  0
 41 42  1  0
 42 43  1  0
 43  2  1  0
 42  5  1  0
 11  6  1  0
 21 12  1  0
 29 22  1  0
 38 31  1  0
 20 15  1  0
  1 44  1  0
  1 45  1  0
  1 46  1  0
  3 47  1  0
  3 48  1  0
  4 49  1  0
  4 50  1  0
  7 51  1  0
  8 52  1  0
 10 53  1  0
 13 54  1  0
 16 55  1  0
 17 56  1  0
 18 57  1  0
 23 58  1  0
 29 59  1  0
 30 60  1  0
 30 61  1  0
 32 62  1  0
 32 63  1  0
 33 64  1  0
 33 65  1  0
 37 66  1  0
 37 67  1  0
 38 68  1  0
 39 69  1  0
 39 70  1  0
 41 71  1  0
 41 72  1  0
 42 73  1  0
 43 74  1  0
 43 75  1  0
M  END
>  <candidate_id>  (1) 
CAND_9b2dbc98ed

>  <source_generator>  (1) 
v5_3_model_guided_macrocycle

>  <parent_mol_id>  (1) 
JAK2_52b2cf11d9

>  <canonical_smiles>  (1) 
CN1CCN2c3ccc(cn3)-c3cnc4cccc(c4n3)-c3cc(F)c(c(F)c3)CN3CCS(=O)(=O)CC3CSCC2C1

>  <inchikey>  (1) 
PIFHNMNPLJJTMY-UHFFFAOYSA-N

>  <valid_rdkit>  (1) 
True

>  <unique_flag>  (1) 
True

>  <novel_flag>  (1) 
True

>  <mw>  (1) 
622.767

>  <logp>  (1) 
4.1032

>  <tpsa>  (1) 
82.53

>  <hbd>  (1) 
0

>  <hba>  (1) 
9

>  <rotatable_bonds>  (1) 
0

>  <qed>  (1) 
0.288

>  <sa_score>  (1) 
5.415

>  <murcko_scaffold>  (1) 
O=S1(=O)CCN2Cc3ccc(cc3)-c3cccc4ncc(nc34)-c3ccc(nc3)N3CCNCC3CSCC2C1

>  <max_ring_size>  (1) 
20

>  <has_macrocycle_12_20>  (1) 
True

>  <has_constrained_ring_8_11>  (1) 
False

>  <passes_basic_filters>  (1) 
True

>  <generation_notes>  (1) 
v5_3_model_guided_anchor_pair=3-24;anchor_scores=0.079,0.079;linker_length=3;target_ring=19;linker_prob=0.650;chemotype=thioether

$$$$
