CAND_13947fed1a
     RDKit          3D

 71 77  0  0  0  0  0  0  0  0999 V2000
    3.4629   -1.3856   -2.2309 F   0  0  0  0  0  0  0  0  0  0  0  0
    3.6724   -0.6912   -1.1028 C   0  0  0  0  0  0  0  0  0  0  0  0
    3.6373    0.6996   -1.1646 C   0  0  0  0  0  0  0  0  0  0  0  0
    3.8115    1.4601   -0.0022 C   0  0  0  0  0  0  0  0  0  0  0  0
    4.0620    0.7916    1.2046 C   0  0  0  0  0  0  0  0  0  0  0  0
    4.0911   -0.6013    1.2467 C   0  0  0  0  0  0  0  0  0  0  0  0
    4.3145   -1.2018    2.4244 F   0  0  0  0  0  0  0  0  0  0  0  0
    3.8755   -1.3665    0.1019 C   0  0  0  0  0  0  0  0  0  0  0  0
    3.7595   -2.8667    0.1759 C   0  0  0  0  0  0  0  0  0  0  0  0
    2.4768   -3.3144    0.7479 N   0  0  0  0  0  0  0  0  0  0  0  0
    2.4006   -4.7829    0.8697 C   0  0  0  0  0  0  0  0  0  0  0  0
    1.5609   -5.4440   -0.2346 C   0  0  0  0  0  0  0  0  0  0  0  0
    0.2066   -4.9737   -0.2849 O   0  0  0  0  0  0  0  0  0  0  0  0
    0.0419   -3.6298    0.2124 C   0  0  0  0  0  0  0  0  0  0  0  0
   -1.1587   -3.0210   -0.5266 C   0  0  0  0  0  0  0  0  0  0  0  0
   -1.7048   -1.7459    0.1324 C   0  0  0  0  0  0  0  0  0  0  0  0
   -2.6945   -1.0391   -0.8070 C   0  0  0  0  0  0  0  0  0  0  0  0
   -3.5133    0.1619   -0.2198 C   0  0  0  0  0  0  0  0  0  0  0  0
   -4.3764    0.7349   -1.3894 C   0  0  0  0  0  0  0  0  0  0  0  0
   -5.7749    1.1289   -0.9279 C   0  0  0  0  0  0  0  0  0  0  0  0
   -6.5240   -0.0338   -0.4514 N   0  0  0  0  0  0  0  0  0  0  0  0
   -5.7394   -0.9556    0.3687 C   0  0  0  0  0  0  0  0  0  0  0  0
   -4.4540   -0.3456    0.9207 C   0  0  0  0  0  0  0  0  0  0  0  0
   -2.6497    1.2663    0.2681 N   0  0  0  0  0  0  0  0  0  0  0  0
   -1.3859    1.6149   -0.1448 C   0  0  0  0  0  0  0  0  0  0  0  0
   -1.0750    2.8111    0.4716 C   0  0  0  0  0  0  0  0  0  0  0  0
   -2.2241    3.1148    1.2249 C   0  0  0  0  0  0  0  0  0  0  0  0
   -3.1859    2.2047    1.0849 N   0  0  0  0  0  0  0  0  0  0  0  0
    0.1521    3.5592    0.3001 C   0  0  0  0  0  0  0  0  0  0  0  0
    0.1531    4.9438    0.2992 C   0  0  0  0  0  0  0  0  0  0  0  0
    1.2823    5.6762    0.1672 N   0  0  0  0  0  0  0  0  0  0  0  0
    2.4313    4.9877    0.0505 C   0  0  0  0  0  0  0  0  0  0  0  0
    3.6130    5.7048   -0.0701 C   0  0  0  0  0  0  0  0  0  0  0  0
    4.8442    5.0661   -0.1779 C   0  0  0  0  0  0  0  0  0  0  0  0
    4.8935    3.6796   -0.1593 C   0  0  0  0  0  0  0  0  0  0  0  0
    3.7120    2.9249   -0.0410 C   0  0  0  0  0  0  0  0  0  0  0  0
    2.4605    3.5676    0.0557 C   0  0  0  0  0  0  0  0  0  0  0  0
    1.3032    2.8608    0.1649 N   0  0  0  0  0  0  0  0  0  0  0  0
    1.3193   -2.7937   -0.0111 C   0  0  0  0  0  0  0  0  0  0  0  0
    3.4403    1.1791   -2.1197 H   0  0  0  0  0  0  0  0  0  0  0  0
    4.2036    1.3450    2.1293 H   0  0  0  0  0  0  0  0  0  0  0  0
    3.9161   -3.3080   -0.8173 H   0  0  0  0  0  0  0  0  0  0  0  0
    4.5856   -3.2318    0.8006 H   0  0  0  0  0  0  0  0  0  0  0  0
    3.3966   -5.2393    0.9103 H   0  0  0  0  0  0  0  0  0  0  0  0
    1.9255   -4.9972    1.8353 H   0  0  0  0  0  0  0  0  0  0  0  0
    1.5231   -6.5269   -0.0783 H   0  0  0  0  0  0  0  0  0  0  0  0
    2.0150   -5.2751   -1.2180 H   0  0  0  0  0  0  0  0  0  0  0  0
   -0.1888   -3.7022    1.2827 H   0  0  0  0  0  0  0  0  0  0  0  0
   -1.9651   -3.7643   -0.5825 H   0  0  0  0  0  0  0  0  0  0  0  0
   -0.8742   -2.8204   -1.5679 H   0  0  0  0  0  0  0  0  0  0  0  0
   -2.1799   -2.0312    1.0748 H   0  0  0  0  0  0  0  0  0  0  0  0
   -0.8907   -1.0636    0.3852 H   0  0  0  0  0  0  0  0  0  0  0  0
   -3.4013   -1.7932   -1.1785 H   0  0  0  0  0  0  0  0  0  0  0  0
   -2.1408   -0.7007   -1.6938 H   0  0  0  0  0  0  0  0  0  0  0  0
   -3.8905    1.6017   -1.8557 H   0  0  0  0  0  0  0  0  0  0  0  0
   -4.4830   -0.0081   -2.1920 H   0  0  0  0  0  0  0  0  0  0  0  0
   -6.3234    1.5717   -1.7665 H   0  0  0  0  0  0  0  0  0  0  0  0
   -5.7254    1.8958   -0.1464 H   0  0  0  0  0  0  0  0  0  0  0  0
   -7.3358    0.2928    0.0741 H   0  0  0  0  0  0  0  0  0  0  0  0
   -6.3612   -1.3072    1.2004 H   0  0  0  0  0  0  0  0  0  0  0  0
   -5.5076   -1.8430   -0.2302 H   0  0  0  0  0  0  0  0  0  0  0  0
   -3.9513   -1.0715    1.5657 H   0  0  0  0  0  0  0  0  0  0  0  0
   -4.7494    0.4642    1.5996 H   0  0  0  0  0  0  0  0  0  0  0  0
   -0.8184    1.0162   -0.8429 H   0  0  0  0  0  0  0  0  0  0  0  0
   -2.4105    3.9677    1.8651 H   0  0  0  0  0  0  0  0  0  0  0  0
   -0.7594    5.5220    0.3958 H   0  0  0  0  0  0  0  0  0  0  0  0
    3.5708    6.7920   -0.0756 H   0  0  0  0  0  0  0  0  0  0  0  0
    5.7571    5.6491   -0.2691 H   0  0  0  0  0  0  0  0  0  0  0  0
    5.8575    3.1789   -0.2348 H   0  0  0  0  0  0  0  0  0  0  0  0
    1.1470   -1.7567    0.2911 H   0  0  0  0  0  0  0  0  0  0  0  0
    1.5411   -2.8028   -1.0870 H   0  0  0  0  0  0  0  0  0  0  0  0
  1  2  1  0
  2  3  1  0
  3  4  2  0
  4  5  1  0
  5  6  2  0
  6  7  1  0
  6  8  1  0
  8  9  1  0
  9 10  1  0
 10 11  1  0
 11 12  1  0
 12 13  1  0
 13 14  1  0
 14 15  1  0
 15 16  1  0
 16 17  1  0
 17 18  1  0
 18 19  1  0
 19 20  1  0
 20 21  1  0
 21 22  1  0
 22 23  1  0
 18 24  1  0
 24 25  1  0
 25 26  2  0
 26 27  1  0
 27 28  2  0
 26 29  1  0
 29 30  2  0
 30 31  1  0
 31 32  2  0
 32 33  1  0
 33 34  2  0
 34 35  1  0
 35 36  2  0
 36 37  1  0
 37 38  2  0
 14 39  1  0
  8  2  2  0
 39 10  1  0
 36  4  1  0
 23 18  1  0
 28 24  1  0
 38 29  1  0
 37 32  1  0
  3 40  1  0
  5 41  1  0
  9 42  1  0
  9 43  1  0
 11 44  1  0
 11 45  1  0
 12 46  1  0
 12 47  1  0
 14 48  1  0
 15 49  1  0
 15 50  1  0
 16 51  1  0
 16 52  1  0
 17 53  1  0
 17 54  1  0
 19 55  1  0
 19 56  1  0
 20 57  1  0
 20 58  1  0
 21 59  1  0
 22 60  1  0
 22 61  1  0
 23 62  1  0
 23 63  1  0
 25 64  1  0
 27 65  1  0
 30 66  1  0
 33 67  1  0
 34 68  1  0
 35 69  1  0
 39 70  1  0
 39 71  1  0
M  END
>  <candidate_id>  (1) 
CAND_13947fed1a

>  <source_generator>  (1) 
v5_3_model_guided_macrocycle

>  <parent_mol_id>  (1) 
JAK2_2dc2722230

>  <canonical_smiles>  (1) 
Fc1cc2cc(F)c1CN1CCOC(CCCC3(CCNCC3)n3cc(cn3)-c3cnc4cccc-2c4n3)C1

>  <inchikey>  (1) 
XIUADRFISTYXLR-UHFFFAOYSA-N

>  <valid_rdkit>  (1) 
True

>  <unique_flag>  (1) 
True

>  <novel_flag>  (1) 
True

>  <mw>  (1) 
530.623

>  <logp>  (1) 
4.9019

>  <tpsa>  (1) 
68.1

>  <hbd>  (1) 
1

>  <hba>  (1) 
6

>  <rotatable_bonds>  (1) 
0

>  <qed>  (1) 
0.3489

>  <sa_score>  (1) 
4.903

>  <murcko_scaffold>  (1) 
c1cc2c3nc(cnc3c1)-c1cnn(c1)C1(CCCC3CN(CCO3)Cc3ccc-2cc3)CCNCC1

>  <max_ring_size>  (1) 
19

>  <has_macrocycle_12_20>  (1) 
True

>  <has_constrained_ring_8_11>  (1) 
False

>  <passes_basic_filters>  (1) 
True

>  <generation_notes>  (1) 
v5_3_model_guided_anchor_pair=16-32;anchor_scores=0.691,0.079;linker_length=3;target_ring=18;linker_prob=0.496;chemotype=oxa_aza

$$$$
