CAND_91833501ec
     RDKit          3D

 68 72  0  0  0  0  0  0  0  0999 V2000
   -5.8288    0.5320   -1.3228 C   0  0  0  0  0  0  0  0  0  0  0  0
   -4.7398    0.8664   -0.2808 C   0  0  0  0  0  0  0  0  0  0  0  0
   -5.0144    2.3059    0.2140 C   0  0  0  0  0  0  0  0  0  0  0  0
   -4.8993   -0.0973    0.9089 C   0  0  0  0  0  0  0  0  0  0  0  0
   -3.3101    0.7914   -0.9233 C   0  0  1  0  0  0  0  0  0  0  0  0
   -2.2786    1.2739   -0.0057 N   0  0  0  0  0  0  0  0  0  0  0  0
   -1.0588    1.7148   -0.4762 C   0  0  0  0  0  0  0  0  0  0  0  0
   -0.7245    1.5933   -1.6478 O   0  0  0  0  0  0  0  0  0  0  0  0
   -0.2098    2.3110    0.5418 C   0  0  0  0  0  0  0  0  0  0  0  0
   -0.6314    3.0488    1.6451 C   0  0  0  0  0  0  0  0  0  0  0  0
    0.4801    3.4811    2.3272 N   0  0  0  0  0  0  0  0  0  0  0  0
    1.6044    3.0209    1.7069 C   0  0  0  0  0  0  0  0  0  0  0  0
    2.8670    3.2475    2.1136 N   0  0  0  0  0  0  0  0  0  0  0  0
    3.7487    2.6348    1.2797 C   0  0  0  0  0  0  0  0  0  0  0  0
    3.4193    1.8544    0.1600 C   0  0  0  0  0  0  0  0  0  0  0  0
    2.1244    1.6692   -0.2008 N   0  0  0  0  0  0  0  0  0  0  0  0
    1.2122    2.2825    0.5960 C   0  0  0  0  0  0  0  0  0  0  0  0
    4.5152    1.1806   -0.6700 C   0  0  0  0  0  0  0  0  0  0  0  0
    5.2512    0.0392    0.0199 C   0  0  0  0  0  0  0  0  0  0  0  0
    4.6260   -1.3486   -0.1621 C   0  0  0  0  0  0  0  0  0  0  0  0
    3.1882   -1.4656    0.3457 C   0  0  0  0  0  0  0  0  0  0  0  0
    2.7740   -2.9286    0.5256 C   0  0  0  0  0  0  0  0  0  0  0  0
    1.2927   -3.0718    0.8894 C   0  0  0  0  0  0  0  0  0  0  0  0
    0.3863   -3.0636   -0.3492 C   0  0  0  0  0  0  0  0  0  0  0  0
   -1.1106   -3.0070    0.0111 C   0  0  0  0  0  0  0  0  0  0  0  0
   -1.5230   -4.0774    0.9011 C   0  0  0  0  0  0  0  0  0  0  0  0
   -1.8547   -4.9225    1.6237 N   0  0  0  0  0  0  0  0  0  0  0  0
   -2.0086   -2.8954   -1.2416 C   0  0  0  0  0  0  0  0  0  0  0  0
   -2.2928   -1.5272   -0.8475 N   0  0  0  0  0  0  0  0  0  0  0  0
   -1.6240   -1.6049    0.4294 C   0  0  0  0  0  0  0  0  0  0  0  0
   -3.0011   -0.5969   -1.5525 C   0  0  0  0  0  0  0  0  0  0  0  0
   -3.5102   -0.9137   -2.6340 O   0  0  0  0  0  0  0  0  0  0  0  0
    5.3279    2.0889   -1.5883 C   0  0  0  0  0  0  0  0  0  0  0  0
    4.3565    1.1189   -2.1823 C   0  0  0  0  0  0  0  0  0  0  0  0
   -5.7160    1.1452   -2.2238 H   0  0  0  0  0  0  0  0  0  0  0  0
   -5.8004   -0.5212   -1.6196 H   0  0  0  0  0  0  0  0  0  0  0  0
   -6.8315    0.7182   -0.9201 H   0  0  0  0  0  0  0  0  0  0  0  0
   -4.3435    2.5945    1.0298 H   0  0  0  0  0  0  0  0  0  0  0  0
   -6.0384    2.4057    0.5925 H   0  0  0  0  0  0  0  0  0  0  0  0
   -4.8896    3.0311   -0.5980 H   0  0  0  0  0  0  0  0  0  0  0  0
   -4.1739    0.1105    1.7017 H   0  0  0  0  0  0  0  0  0  0  0  0
   -4.7768   -1.1408    0.6009 H   0  0  0  0  0  0  0  0  0  0  0  0
   -5.8977   -0.0081    1.3531 H   0  0  0  0  0  0  0  0  0  0  0  0
   -3.2912    1.4880   -1.7747 H   0  0  0  0  0  0  0  0  0  0  0  0
   -2.4693    1.3281    0.9834 H   0  0  0  0  0  0  0  0  0  0  0  0
   -1.6191    3.3382    1.9792 H   0  0  0  0  0  0  0  0  0  0  0  0
    0.4943    4.0577    3.1569 H   0  0  0  0  0  0  0  0  0  0  0  0
    4.7920    2.7813    1.5467 H   0  0  0  0  0  0  0  0  0  0  0  0
    5.3474    0.2510    1.0922 H   0  0  0  0  0  0  0  0  0  0  0  0
    6.2806   -0.0119   -0.3585 H   0  0  0  0  0  0  0  0  0  0  0  0
    4.6558   -1.6379   -1.2193 H   0  0  0  0  0  0  0  0  0  0  0  0
    5.2595   -2.0677    0.3727 H   0  0  0  0  0  0  0  0  0  0  0  0
    2.5152   -0.9785   -0.3665 H   0  0  0  0  0  0  0  0  0  0  0  0
    3.0855   -0.9493    1.3076 H   0  0  0  0  0  0  0  0  0  0  0  0
    3.3750   -3.3594    1.3362 H   0  0  0  0  0  0  0  0  0  0  0  0
    2.9997   -3.5071   -0.3782 H   0  0  0  0  0  0  0  0  0  0  0  0
    0.9981   -2.2862    1.5951 H   0  0  0  0  0  0  0  0  0  0  0  0
    1.1642   -4.0263    1.4143 H   0  0  0  0  0  0  0  0  0  0  0  0
    0.6420   -2.2103   -0.9899 H   0  0  0  0  0  0  0  0  0  0  0  0
    0.5890   -3.9651   -0.9428 H   0  0  0  0  0  0  0  0  0  0  0  0
   -1.4997   -2.9695   -2.2078 H   0  0  0  0  0  0  0  0  0  0  0  0
   -2.9104   -3.5170   -1.2582 H   0  0  0  0  0  0  0  0  0  0  0  0
   -2.3162   -1.5767    1.2760 H   0  0  0  0  0  0  0  0  0  0  0  0
   -0.8362   -0.8633    0.5769 H   0  0  0  0  0  0  0  0  0  0  0  0
    6.3849    1.8913   -1.7263 H   0  0  0  0  0  0  0  0  0  0  0  0
    5.0741    3.1425   -1.6475 H   0  0  0  0  0  0  0  0  0  0  0  0
    4.7568    0.2675   -2.7202 H   0  0  0  0  0  0  0  0  0  0  0  0
    3.4426    1.5103   -2.6195 H   0  0  0  0  0  0  0  0  0  0  0  0
  1  2  1  0
  2  3  1  0
  2  4  1  0
  2  5  1  0
  5  6  1  0
  6  7  1  0
  7  8  2  0
  7  9  1  0
  9 10  2  0
 10 11  1  0
 11 12  1  0
 12 13  2  0
 13 14  1  0
 14 15  2  0
 15 16  1  0
 16 17  2  0
 15 18  1  0
 18 19  1  0
 19 20  1  0
 20 21  1  0
 21 22  1  0
 22 23  1  0
 23 24  1  0
 24 25  1  0
 25 26  1  0
 26 27  3  0
 25 28  1  0
 28 29  1  0
 29 30  1  0
 29 31  1  0
 31 32  2  0
 18 33  1  0
 33 34  1  0
 31  5  1  0
 17  9  1  0
 34 18  1  0
 17 12  1  0
 30 25  1  0
  1 35  1  0
  1 36  1  0
  1 37  1  0
  3 38  1  0
  3 39  1  0
  3 40  1  0
  4 41  1  0
  4 42  1  0
  4 43  1  0
  5 44  1  6
  6 45  1  0
 10 46  1  0
 11 47  1  0
 14 48  1  0
 19 49  1  0
 19 50  1  0
 20 51  1  0
 20 52  1  0
 21 53  1  0
 21 54  1  0
 22 55  1  0
 22 56  1  0
 23 57  1  0
 23 58  1  0
 24 59  1  0
 24 60  1  0
 28 61  1  0
 28 62  1  0
 30 63  1  0
 30 64  1  0
 33 65  1  0
 33 66  1  0
 34 67  1  0
 34 68  1  0
M  END
>  <candidate_id>  (1) 
CAND_91833501ec

>  <source_generator>  (1) 
v5_3_model_guided_macrocycle

>  <parent_mol_id>  (1) 
JAK2_1a53985c87

>  <canonical_smiles>  (1) 
CC(C)(C)[C@H]1NC(=O)c2c[nH]c3ncc(nc23)C2(CCCCCCC3(C#N)CN(C3)C1=O)CC2

>  <inchikey>  (1) 
ZRRCLZIZDXXRHT-FQEVSTJZSA-N

>  <valid_rdkit>  (1) 
True

>  <unique_flag>  (1) 
True

>  <novel_flag>  (1) 
True

>  <mw>  (1) 
462.598

>  <logp>  (1) 
3.8404

>  <tpsa>  (1) 
114.77

>  <hbd>  (1) 
2

>  <hba>  (1) 
5

>  <rotatable_bonds>  (1) 
0

>  <qed>  (1) 
0.6172

>  <sa_score>  (1) 
4.276

>  <murcko_scaffold>  (1) 
O=C1NCC(=O)N2CC(CCCCCCC3(CC3)c3cnc4[nH]cc1c4n3)C2

>  <max_ring_size>  (1) 
18

>  <has_macrocycle_12_20>  (1) 
True

>  <has_constrained_ring_8_11>  (1) 
False

>  <passes_basic_filters>  (1) 
True

>  <generation_notes>  (1) 
v5_3_model_guided_anchor_pair=15-24;anchor_scores=0.691,0.691;linker_length=6;target_ring=17;linker_prob=0.248;chemotype=alkyl

$$$$
