CAND_d7d5e569e3
     RDKit          3D

 68 74  0  0  0  0  0  0  0  0999 V2000
    8.0974   -0.8607   -0.6669 N   0  0  0  0  0  0  0  0  0  0  0  0
    6.9330   -0.1546   -0.7650 C   0  0  0  0  0  0  0  0  0  0  0  0
    6.8721    0.8529   -1.4634 O   0  0  0  0  0  0  0  0  0  0  0  0
    5.7526   -0.6139   -0.0053 C   0  0  0  0  0  0  0  0  0  0  0  0
    5.6450   -1.8358    0.6509 C   0  0  0  0  0  0  0  0  0  0  0  0
    4.5346   -2.2994    1.2882 N   0  0  0  0  0  0  0  0  0  0  0  0
    3.4222   -1.5304    1.3262 C   0  0  0  0  0  0  0  0  0  0  0  0
    3.4867   -0.2182    0.8038 C   0  0  0  0  0  0  0  0  0  0  0  0
    4.6071    0.1822    0.0822 C   0  0  0  0  0  0  0  0  0  0  0  0
    4.3016    1.4008   -0.4958 N   0  0  0  0  0  0  0  0  0  0  0  0
    3.0176    1.7825   -0.1771 C   0  0  0  0  0  0  0  0  0  0  0  0
    2.1950    2.8068   -0.6796 C   0  0  0  0  0  0  0  0  0  0  0  0
    0.8853    2.8935   -0.1664 C   0  0  0  0  0  0  0  0  0  0  0  0
    0.5322    2.1170    0.9562 C   0  0  0  0  0  0  0  0  0  0  0  0
    1.3546    1.1067    1.4312 C   0  0  0  0  0  0  0  0  0  0  0  0
    2.5724    0.8753    0.7812 C   0  0  0  0  0  0  0  0  0  0  0  0
   -0.2404    3.5053   -0.9092 C   0  0  0  0  0  0  0  0  0  0  0  0
   -0.5522    2.9476   -2.1457 C   0  0  0  0  0  0  0  0  0  0  0  0
   -1.8689    2.5592   -2.3592 C   0  0  0  0  0  0  0  0  0  0  0  0
   -2.7967    2.7965   -1.3569 C   0  0  0  0  0  0  0  0  0  0  0  0
   -2.5129    3.6519   -0.3528 N   0  0  0  0  0  0  0  0  0  0  0  0
   -1.2214    4.0212   -0.1304 N   0  0  0  0  0  0  0  0  0  0  0  0
   -3.8620    1.8820   -1.2108 N   0  0  0  0  0  0  0  0  0  0  0  0
   -5.1730    2.5138   -1.2918 C   0  0  0  0  0  0  0  0  0  0  0  0
   -6.1989    1.4584   -1.6322 C   0  0  0  0  0  0  0  0  0  0  0  0
   -6.2036    0.1675   -0.4101 S   0  0  0  0  0  0  0  0  0  0  0  0
   -7.4195    0.3156    0.3700 O   0  0  0  0  0  0  0  0  0  0  0  0
   -5.9193   -1.0890   -1.0785 O   0  0  0  0  0  0  0  0  0  0  0  0
   -4.8499    0.5374    0.6706 C   0  0  0  0  0  0  0  0  0  0  0  0
   -3.5899    0.9329   -0.0850 C   0  0  0  0  0  0  0  0  0  0  0  0
   -2.7747   -0.3052   -0.5444 C   0  0  0  0  0  0  0  0  0  0  0  0
   -2.0330   -0.8344    0.5716 O   0  0  0  0  0  0  0  0  0  0  0  0
   -1.3091   -2.0208    0.2207 C   0  0  0  0  0  0  0  0  0  0  0  0
   -0.2296   -2.3319    1.2701 C   0  0  0  0  0  0  0  0  0  0  0  0
   -0.4996   -1.9468    2.7249 C   0  0  0  0  0  0  0  0  0  0  0  0
   -0.5715   -3.3839    2.3213 C   0  0  0  0  0  0  0  0  0  0  0  0
    1.2107   -2.3119    0.6903 C   0  0  2  0  0  0  0  0  0  0  0  0
    1.4847   -3.5703   -0.1933 C   0  0  0  0  0  0  0  0  0  0  0  0
    2.5970   -3.4192   -0.9500 F   0  0  0  0  0  0  0  0  0  0  0  0
    1.6475   -4.6840    0.5598 F   0  0  0  0  0  0  0  0  0  0  0  0
    0.4645   -3.8115   -1.0527 F   0  0  0  0  0  0  0  0  0  0  0  0
    2.2429   -2.1388    1.7578 N   0  0  0  0  0  0  0  0  0  0  0  0
    8.8873   -0.5150   -1.1986 H   0  0  0  0  0  0  0  0  0  0  0  0
    8.2509   -1.6677   -0.0818 H   0  0  0  0  0  0  0  0  0  0  0  0
    6.4638   -2.5481    0.6606 H   0  0  0  0  0  0  0  0  0  0  0  0
    4.9257    1.8830   -1.1334 H   0  0  0  0  0  0  0  0  0  0  0  0
    2.5168    3.4188   -1.5166 H   0  0  0  0  0  0  0  0  0  0  0  0
   -0.4647    2.1960    1.3911 H   0  0  0  0  0  0  0  0  0  0  0  0
    1.0083    0.4507    2.2233 H   0  0  0  0  0  0  0  0  0  0  0  0
    0.2221    2.5493   -2.7946 H   0  0  0  0  0  0  0  0  0  0  0  0
   -2.1122    1.9037   -3.1888 H   0  0  0  0  0  0  0  0  0  0  0  0
   -5.4215    3.0296   -0.3559 H   0  0  0  0  0  0  0  0  0  0  0  0
   -5.1876    3.2682   -2.0892 H   0  0  0  0  0  0  0  0  0  0  0  0
   -7.2035    1.8884   -1.6779 H   0  0  0  0  0  0  0  0  0  0  0  0
   -5.9738    0.9922   -2.5973 H   0  0  0  0  0  0  0  0  0  0  0  0
   -4.6900   -0.3297    1.3193 H   0  0  0  0  0  0  0  0  0  0  0  0
   -5.1835    1.3653    1.3074 H   0  0  0  0  0  0  0  0  0  0  0  0
   -2.9739    1.4327    0.6773 H   0  0  0  0  0  0  0  0  0  0  0  0
   -2.0518   -0.0241   -1.3166 H   0  0  0  0  0  0  0  0  0  0  0  0
   -3.4191   -1.0855   -0.9583 H   0  0  0  0  0  0  0  0  0  0  0  0
   -2.0180   -2.8530    0.1436 H   0  0  0  0  0  0  0  0  0  0  0  0
   -0.8510   -1.8776   -0.7640 H   0  0  0  0  0  0  0  0  0  0  0  0
    0.3223   -1.6410    3.3622 H   0  0  0  0  0  0  0  0  0  0  0  0
   -1.4295   -1.4434    2.9688 H   0  0  0  0  0  0  0  0  0  0  0  0
   -1.5522   -3.8485    2.3010 H   0  0  0  0  0  0  0  0  0  0  0  0
    0.2066   -4.0456    2.6865 H   0  0  0  0  0  0  0  0  0  0  0  0
    1.2392   -1.4503    0.0137 H   0  0  0  0  0  0  0  0  0  0  0  0
    2.4586   -2.9945    2.2638 H   0  0  0  0  0  0  0  0  0  0  0  0
  1  2  1  0
  2  3  2  0
  2  4  1  0
  4  5  2  0
  5  6  1  0
  6  7  2  0
  7  8  1  0
  8  9  2  0
  9 10  1  0
 10 11  1  0
 11 12  2  0
 12 13  1  0
 13 14  2  0
 14 15  1  0
 15 16  2  0
 13 17  1  0
 17 18  2  0
 18 19  1  0
 19 20  2  0
 20 21  1  0
 21 22  2  0
 20 23  1  0
 23 24  1  0
 24 25  1  0
 25 26  1  0
 26 27  2  0
 26 28  2  0
 26 29  1  0
 29 30  1  0
 30 31  1  0
 31 32  1  0
 32 33  1  0
 33 34  1  0
 34 35  1  0
 35 36  1  0
 34 37  1  0
 37 38  1  0
 38 39  1  0
 38 40  1  0
 38 41  1  0
 37 42  1  0
  9  4  1  0
 16 11  1  0
 22 17  1  0
 30 23  1  0
 36 34  1  0
 42  7  1  0
 16  8  1  0
  1 43  1  0
  1 44  1  0
  5 45  1  0
 10 46  1  0
 12 47  1  0
 14 48  1  0
 15 49  1  0
 18 50  1  0
 19 51  1  0
 24 52  1  0
 24 53  1  0
 25 54  1  0
 25 55  1  0
 29 56  1  0
 29 57  1  0
 30 58  1  0
 31 59  1  0
 31 60  1  0
 33 61  1  0
 33 62  1  0
 35 63  1  0
 35 64  1  0
 36 65  1  0
 36 66  1  0
 37 67  1  6
 42 68  1  0
M  END
>  <candidate_id>  (1) 
CAND_d7d5e569e3

>  <source_generator>  (1) 
v5_3_model_guided_macrocycle

>  <parent_mol_id>  (1) 
JAK2_b8536fbab5

>  <canonical_smiles>  (1) 
NC(=O)c1cnc2c3c1[nH]c1cc(ccc13)-c1ccc(nn1)N1CCS(=O)(=O)CC1COCC1(CC1)[C@H](C(F)(F)F)N2

>  <inchikey>  (1) 
CNIZANOYKOCSCB-FFMAFDDDSA-N

>  <valid_rdkit>  (1) 
True

>  <unique_flag>  (1) 
True

>  <novel_flag>  (1) 
True

>  <mw>  (1) 
601.611

>  <logp>  (1) 
3.0286

>  <tpsa>  (1) 
156.19

>  <hbd>  (1) 
3

>  <hba>  (1) 
9

>  <rotatable_bonds>  (1) 
1

>  <qed>  (1) 
0.2985

>  <sa_score>  (1) 
5.423

>  <murcko_scaffold>  (1) 
O=S1(=O)CCN2c3ccc(nn3)-c3ccc4c(c3)[nH]c3ccnc(c34)NCC3(CC3)COCC2C1

>  <max_ring_size>  (1) 
18

>  <has_macrocycle_12_20>  (1) 
True

>  <has_constrained_ring_8_11>  (1) 
False

>  <passes_basic_filters>  (1) 
True

>  <generation_notes>  (1) 
v5_3_model_guided_anchor_pair=9-27;anchor_scores=0.691,0.079;linker_length=3;target_ring=17;linker_prob=0.683;chemotype=oxa

$$$$
