CAND_a8aa3f8065
     RDKit          3D

 75 81  0  0  0  0  0  0  0  0999 V2000
    7.0432   -0.3047   -0.5285 C   0  0  0  0  0  0  0  0  0  0  0  0
    6.0565   -0.6966    0.4743 N   0  0  0  0  0  0  0  0  0  0  0  0
    5.6654   -2.1090    0.2912 C   0  0  0  0  0  0  0  0  0  0  0  0
    4.2574   -2.4424    0.8271 C   0  0  0  0  0  0  0  0  0  0  0  0
    3.2338   -1.6614    0.1084 N   0  0  0  0  0  0  0  0  0  0  0  0
    2.0009   -2.2382   -0.1405 C   0  0  0  0  0  0  0  0  0  0  0  0
    1.2582   -1.9422   -1.2871 C   0  0  0  0  0  0  0  0  0  0  0  0
   -0.0550   -2.4006   -1.4488 C   0  0  0  0  0  0  0  0  0  0  0  0
   -0.6640   -3.2087   -0.4800 C   0  0  0  0  0  0  0  0  0  0  0  0
    0.1027   -3.5970    0.6215 C   0  0  0  0  0  0  0  0  0  0  0  0
    1.4085   -3.1148    0.7843 C   0  0  0  0  0  0  0  0  0  0  0  0
   -2.0944   -3.4949   -0.5488 C   0  0  0  0  0  0  0  0  0  0  0  0
   -2.6621   -4.7541   -0.5679 C   0  0  0  0  0  0  0  0  0  0  0  0
   -4.0056   -4.9509   -0.5691 N   0  0  0  0  0  0  0  0  0  0  0  0
   -4.7798   -3.8441   -0.5226 C   0  0  0  0  0  0  0  0  0  0  0  0
   -6.1623   -3.9688   -0.4879 C   0  0  0  0  0  0  0  0  0  0  0  0
   -6.9940   -2.8505   -0.4105 C   0  0  0  0  0  0  0  0  0  0  0  0
   -6.4360   -1.5768   -0.3628 C   0  0  0  0  0  0  0  0  0  0  0  0
   -5.0436   -1.4150   -0.4056 C   0  0  0  0  0  0  0  0  0  0  0  0
   -4.2142   -2.5482   -0.4942 C   0  0  0  0  0  0  0  0  0  0  0  0
   -2.8770   -2.3951   -0.5291 N   0  0  0  0  0  0  0  0  0  0  0  0
   -4.4391   -0.0712   -0.3273 C   0  0  0  0  0  0  0  0  0  0  0  0
   -3.7410    0.4628   -1.4202 C   0  0  0  0  0  0  0  0  0  0  0  0
   -3.0408    1.6612   -1.2974 C   0  0  0  0  0  0  0  0  0  0  0  0
   -2.3690    2.1184   -2.3646 F   0  0  0  0  0  0  0  0  0  0  0  0
   -3.0105    2.3721   -0.0981 C   0  0  0  0  0  0  0  0  0  0  0  0
   -3.7437    1.8611    0.9722 C   0  0  0  0  0  0  0  0  0  0  0  0
   -3.7834    2.5254    2.1367 F   0  0  0  0  0  0  0  0  0  0  0  0
   -4.4512    0.6607    0.8685 C   0  0  0  0  0  0  0  0  0  0  0  0
   -2.2132    3.6433    0.0253 C   0  0  0  0  0  0  0  0  0  0  0  0
   -0.9985    3.5187    0.8647 N   0  0  0  0  0  0  0  0  0  0  0  0
   -0.4846    4.8602    1.1999 C   0  0  0  0  0  0  0  0  0  0  0  0
    0.0103    5.6665   -0.0163 C   0  0  0  0  0  0  0  0  0  0  0  0
    0.4589    4.8424   -1.0997 O   0  0  0  0  0  0  0  0  0  0  0  0
    1.0694    3.6376   -0.6263 C   0  0  0  0  0  0  0  0  0  0  0  0
    0.0870    2.7398    0.1804 C   0  0  0  0  0  0  0  0  0  0  0  0
    0.8610    1.8972    1.2524 C   0  0  0  0  0  0  0  0  0  0  0  0
    1.5808    0.7007    0.8229 N   0  0  0  0  0  0  0  0  0  0  0  0
    2.5288    0.8101   -0.2771 C   0  0  0  0  0  0  0  0  0  0  0  0
    3.6397   -0.3016   -0.3648 C   0  0  0  0  0  0  0  0  0  0  0  0
    4.8739    0.1918    0.4640 C   0  0  0  0  0  0  0  0  0  0  0  0
    7.4110    0.7080   -0.3294 H   0  0  0  0  0  0  0  0  0  0  0  0
    6.6338   -0.3285   -1.5448 H   0  0  0  0  0  0  0  0  0  0  0  0
    7.9150   -0.9674   -0.4903 H   0  0  0  0  0  0  0  0  0  0  0  0
    6.4027   -2.7430    0.7971 H   0  0  0  0  0  0  0  0  0  0  0  0
    5.6854   -2.3779   -0.7743 H   0  0  0  0  0  0  0  0  0  0  0  0
    4.1041   -3.5195    0.6837 H   0  0  0  0  0  0  0  0  0  0  0  0
    4.1957   -2.2343    1.9022 H   0  0  0  0  0  0  0  0  0  0  0  0
    1.6747   -1.3089   -2.0635 H   0  0  0  0  0  0  0  0  0  0  0  0
   -0.6243   -2.0690   -2.3151 H   0  0  0  0  0  0  0  0  0  0  0  0
   -0.3331   -4.2021    1.4132 H   0  0  0  0  0  0  0  0  0  0  0  0
    1.9291   -3.3733    1.7026 H   0  0  0  0  0  0  0  0  0  0  0  0
   -2.0560   -5.6530   -0.5810 H   0  0  0  0  0  0  0  0  0  0  0  0
   -6.6004   -4.9640   -0.5138 H   0  0  0  0  0  0  0  0  0  0  0  0
   -8.0736   -2.9770   -0.3805 H   0  0  0  0  0  0  0  0  0  0  0  0
   -7.0875   -0.7077   -0.2948 H   0  0  0  0  0  0  0  0  0  0  0  0
   -3.6907   -0.0754   -2.3631 H   0  0  0  0  0  0  0  0  0  0  0  0
   -4.9680    0.2847    1.7472 H   0  0  0  0  0  0  0  0  0  0  0  0
   -1.9783    4.0335   -0.9726 H   0  0  0  0  0  0  0  0  0  0  0  0
   -2.8887    4.3850    0.4745 H   0  0  0  0  0  0  0  0  0  0  0  0
   -1.2317    5.4414    1.7545 H   0  0  0  0  0  0  0  0  0  0  0  0
    0.3496    4.7406    1.9039 H   0  0  0  0  0  0  0  0  0  0  0  0
   -0.7978    6.2923   -0.4094 H   0  0  0  0  0  0  0  0  0  0  0  0
    0.8299    6.3309    0.2782 H   0  0  0  0  0  0  0  0  0  0  0  0
    1.4220    3.0994   -1.5111 H   0  0  0  0  0  0  0  0  0  0  0  0
    1.9494    3.9174   -0.0346 H   0  0  0  0  0  0  0  0  0  0  0  0
   -0.3657    2.0222   -0.5129 H   0  0  0  0  0  0  0  0  0  0  0  0
    1.5490    2.5463    1.8085 H   0  0  0  0  0  0  0  0  0  0  0  0
    0.1272    1.5429    1.9883 H   0  0  0  0  0  0  0  0  0  0  0  0
    1.9727    0.1752    1.6027 H   0  0  0  0  0  0  0  0  0  0  0  0
    1.9607    0.7982   -1.2135 H   0  0  0  0  0  0  0  0  0  0  0  0
    3.0360    1.7806   -0.2416 H   0  0  0  0  0  0  0  0  0  0  0  0
    3.9500   -0.3842   -1.4150 H   0  0  0  0  0  0  0  0  0  0  0  0
    4.5585    0.3030    1.5107 H   0  0  0  0  0  0  0  0  0  0  0  0
    5.1658    1.2002    0.1430 H   0  0  0  0  0  0  0  0  0  0  0  0
  1  2  1  0
  2  3  1  0
  3  4  1  0
  4  5  1  0
  5  6  1  0
  6  7  2  0
  7  8  1  0
  8  9  2  0
  9 10  1  0
 10 11  2  0
  9 12  1  0
 12 13  2  0
 13 14  1  0
 14 15  2  0
 15 16  1  0
 16 17  2  0
 17 18  1  0
 18 19  2  0
 19 20  1  0
 20 21  2  0
 19 22  1  0
 22 23  2  0
 23 24  1  0
 24 25  1  0
 24 26  2  0
 26 27  1  0
 27 28  1  0
 27 29  2  0
 26 30  1  0
 30 31  1  0
 31 32  1  0
 32 33  1  0
 33 34  1  0
 34 35  1  0
 35 36  1  0
 36 37  1  0
 37 38  1  0
 38 39  1  0
 39 40  1  0
 40 41  1  0
 41  2  1  0
 40  5  1  0
 11  6  1  0
 21 12  1  0
 29 22  1  0
 36 31  1  0
 20 15  1  0
  1 42  1  0
  1 43  1  0
  1 44  1  0
  3 45  1  0
  3 46  1  0
  4 47  1  0
  4 48  1  0
  7 49  1  0
  8 50  1  0
 10 51  1  0
 11 52  1  0
 13 53  1  0
 16 54  1  0
 17 55  1  0
 18 56  1  0
 23 57  1  0
 29 58  1  0
 30 59  1  0
 30 60  1  0
 32 61  1  0
 32 62  1  0
 33 63  1  0
 33 64  1  0
 35 65  1  0
 35 66  1  0
 36 67  1  0
 37 68  1  0
 37 69  1  0
 38 70  1  0
 39 71  1  0
 39 72  1  0
 40 73  1  0
 41 74  1  0
 41 75  1  0
M  END
>  <candidate_id>  (1) 
CAND_a8aa3f8065

>  <source_generator>  (1) 
v5_3_model_guided_macrocycle

>  <parent_mol_id>  (1) 
JAK2_4424830aa8

>  <canonical_smiles>  (1) 
CN1CCN2c3ccc(cc3)-c3cnc4cccc(c4n3)-c3cc(F)c(c(F)c3)CN3CCOCC3CNCC2C1

>  <inchikey>  (1) 
XSIKJHLRGSNBFX-UHFFFAOYSA-N

>  <valid_rdkit>  (1) 
True

>  <unique_flag>  (1) 
True

>  <novel_flag>  (1) 
True

>  <mw>  (1) 
556.661

>  <logp>  (1) 
4.1664

>  <tpsa>  (1) 
56.76

>  <hbd>  (1) 
1

>  <hba>  (1) 
7

>  <rotatable_bonds>  (1) 
0

>  <qed>  (1) 
0.3491

>  <sa_score>  (1) 
5.048

>  <murcko_scaffold>  (1) 
c1cc2c3nc(cnc3c1)-c1ccc(cc1)N1CCNCC1CNCC1COCCN1Cc1ccc-2cc1

>  <max_ring_size>  (1) 
20

>  <has_macrocycle_12_20>  (1) 
True

>  <has_constrained_ring_8_11>  (1) 
False

>  <passes_basic_filters>  (1) 
True

>  <generation_notes>  (1) 
v5_3_model_guided_anchor_pair=3-24;anchor_scores=0.079,0.079;linker_length=3;target_ring=19;linker_prob=0.610;chemotype=aza

$$$$
