CAND_61168e1ccf
     RDKit          3D

 75 80  0  0  0  0  0  0  0  0999 V2000
    7.0103   -0.5538   -1.4523 C   0  0  0  0  0  0  0  0  0  0  0  0
    5.7721   -1.3754   -1.2984 C   0  0  0  0  0  0  0  0  0  0  0  0
    5.6446   -2.5459   -2.0245 C   0  0  0  0  0  0  0  0  0  0  0  0
    4.5587   -3.3383   -2.0144 N   0  0  0  0  0  0  0  0  0  0  0  0
    3.5266   -2.9260   -1.2728 C   0  0  0  0  0  0  0  0  0  0  0  0
    3.5812   -1.8433   -0.4831 N   0  0  0  0  0  0  0  0  0  0  0  0
    4.7026   -1.0848   -0.4625 C   0  0  0  0  0  0  0  0  0  0  0  0
    4.6419    0.0371    0.5124 C   0  0  0  0  0  0  0  0  0  0  0  0
    5.7561    0.4348    1.2712 C   0  0  0  0  0  0  0  0  0  0  0  0
    5.6806    1.4858    2.1884 C   0  0  0  0  0  0  0  0  0  0  0  0
    4.4738    2.1470    2.3947 C   0  0  0  0  0  0  0  0  0  0  0  0
    3.3234    1.7626    1.6947 C   0  0  0  0  0  0  0  0  0  0  0  0
    3.4241    0.7089    0.7684 C   0  0  0  0  0  0  0  0  0  0  0  0
    2.0096    2.4260    2.0480 C   0  0  0  0  0  0  0  0  0  0  0  0
    0.9402    2.2092    1.1327 O   0  0  0  0  0  0  0  0  0  0  0  0
    1.0089    3.0088   -0.0387 C   0  0  0  0  0  0  0  0  0  0  0  0
   -0.3996    3.2929   -0.4701 C   0  0  0  0  0  0  0  0  0  0  0  0
   -1.1527    2.6234   -1.3721 C   0  0  0  0  0  0  0  0  0  0  0  0
   -0.6885    1.3915   -2.1164 C   0  0  0  0  0  0  0  0  0  0  0  0
   -1.4306    0.2323   -1.7606 O   0  0  0  0  0  0  0  0  0  0  0  0
   -1.1057   -0.2851   -0.4724 C   0  0  0  0  0  0  0  0  0  0  0  0
   -0.7382   -1.7382   -0.6039 C   0  0  0  0  0  0  0  0  0  0  0  0
    0.5952   -2.0574   -0.9133 C   0  0  0  0  0  0  0  0  0  0  0  0
    1.0312   -3.3748   -1.0920 C   0  0  0  0  0  0  0  0  0  0  0  0
    0.0871   -4.3978   -0.9483 C   0  0  0  0  0  0  0  0  0  0  0  0
   -1.2486   -4.1061   -0.6485 C   0  0  0  0  0  0  0  0  0  0  0  0
   -1.6533   -2.7832   -0.4631 C   0  0  0  0  0  0  0  0  0  0  0  0
   -2.9769   -2.5398   -0.2076 O   0  0  0  0  0  0  0  0  0  0  0  0
   -3.2203   -2.5346    1.2054 C   0  0  0  0  0  0  0  0  0  0  0  0
   -4.6130   -1.9511    1.5120 C   0  0  0  0  0  0  0  0  0  0  0  0
   -4.6740   -0.4911    1.3478 N   0  0  0  0  0  0  0  0  0  0  0  0
   -5.8031    0.1130    2.0522 C   0  0  0  0  0  0  0  0  0  0  0  0
   -5.8268    1.5265    1.4852 C   0  0  0  0  0  0  0  0  0  0  0  0
   -5.2225    1.4056    0.0795 C   0  0  0  0  0  0  0  0  0  0  0  0
   -3.9990    2.3126   -0.0932 C   0  0  0  0  0  0  0  0  0  0  0  0
   -3.5802    2.2566   -1.4571 O   0  0  0  0  0  0  0  0  0  0  0  0
   -2.5182    3.1518   -1.7629 C   0  0  0  0  0  0  0  0  0  0  0  0
   -4.8702   -0.0782   -0.0515 C   0  0  0  0  0  0  0  0  0  0  0  0
    2.3668   -3.6915   -1.3639 N   0  0  0  0  0  0  0  0  0  0  0  0
    7.7590   -0.8424   -0.7088 H   0  0  0  0  0  0  0  0  0  0  0  0
    7.4504   -0.6966   -2.4460 H   0  0  0  0  0  0  0  0  0  0  0  0
    6.7952    0.5157   -1.3660 H   0  0  0  0  0  0  0  0  0  0  0  0
    6.4416   -2.8910   -2.6791 H   0  0  0  0  0  0  0  0  0  0  0  0
    6.7023   -0.0920    1.1862 H   0  0  0  0  0  0  0  0  0  0  0  0
    6.5600    1.7693    2.7613 H   0  0  0  0  0  0  0  0  0  0  0  0
    4.4274    2.9438    3.1343 H   0  0  0  0  0  0  0  0  0  0  0  0
    2.5247    0.3807    0.2492 H   0  0  0  0  0  0  0  0  0  0  0  0
    1.6824    2.0031    3.0052 H   0  0  0  0  0  0  0  0  0  0  0  0
    2.1495    3.5026    2.2055 H   0  0  0  0  0  0  0  0  0  0  0  0
    1.5075    3.9667    0.1529 H   0  0  0  0  0  0  0  0  0  0  0  0
    1.5865    2.4889   -0.8068 H   0  0  0  0  0  0  0  0  0  0  0  0
   -0.8333    4.1636    0.0192 H   0  0  0  0  0  0  0  0  0  0  0  0
   -0.8397    1.5549   -3.1898 H   0  0  0  0  0  0  0  0  0  0  0  0
    0.3801    1.1867   -1.9996 H   0  0  0  0  0  0  0  0  0  0  0  0
   -1.9568   -0.1465    0.1954 H   0  0  0  0  0  0  0  0  0  0  0  0
   -0.2699    0.2478   -0.0074 H   0  0  0  0  0  0  0  0  0  0  0  0
    1.2944   -1.2376   -1.0490 H   0  0  0  0  0  0  0  0  0  0  0  0
    0.3823   -5.4363   -1.0707 H   0  0  0  0  0  0  0  0  0  0  0  0
   -1.9726   -4.9109   -0.5627 H   0  0  0  0  0  0  0  0  0  0  0  0
   -3.1930   -3.5709    1.5655 H   0  0  0  0  0  0  0  0  0  0  0  0
   -2.4542   -1.9649    1.7485 H   0  0  0  0  0  0  0  0  0  0  0  0
   -5.3792   -2.4493    0.9051 H   0  0  0  0  0  0  0  0  0  0  0  0
   -4.8235   -2.1900    2.5623 H   0  0  0  0  0  0  0  0  0  0  0  0
   -5.6584    0.1211    3.1371 H   0  0  0  0  0  0  0  0  0  0  0  0
   -6.7462   -0.4017    1.8276 H   0  0  0  0  0  0  0  0  0  0  0  0
   -6.8496    1.9159    1.4467 H   0  0  0  0  0  0  0  0  0  0  0  0
   -5.2377    2.2016    2.1173 H   0  0  0  0  0  0  0  0  0  0  0  0
   -5.9679    1.6649   -0.6826 H   0  0  0  0  0  0  0  0  0  0  0  0
   -3.1797    2.0027    0.5648 H   0  0  0  0  0  0  0  0  0  0  0  0
   -4.2748    3.3450    0.1528 H   0  0  0  0  0  0  0  0  0  0  0  0
   -2.5292    3.3005   -2.8492 H   0  0  0  0  0  0  0  0  0  0  0  0
   -2.7233    4.1370   -1.3259 H   0  0  0  0  0  0  0  0  0  0  0  0
   -5.7170   -0.6136   -0.5020 H   0  0  0  0  0  0  0  0  0  0  0  0
   -3.9979   -0.2473   -0.6833 H   0  0  0  0  0  0  0  0  0  0  0  0
    2.5472   -4.5516   -1.8571 H   0  0  0  0  0  0  0  0  0  0  0  0
  1  2  1  0
  2  3  2  0
  3  4  1  0
  4  5  2  0
  5  6  1  0
  6  7  2  0
  7  8  1  0
  8  9  2  0
  9 10  1  0
 10 11  2  0
 11 12  1  0
 12 13  2  0
 12 14  1  0
 14 15  1  0
 15 16  1  0
 16 17  1  0
 17 18  2  3
 18 19  1  0
 19 20  1  0
 20 21  1  0
 21 22  1  0
 22 23  2  0
 23 24  1  0
 24 25  2  0
 25 26  1  0
 26 27  2  0
 27 28  1  0
 28 29  1  0
 29 30  1  0
 30 31  1  0
 31 32  1  0
 32 33  1  0
 33 34  1  0
 34 35  1  0
 35 36  1  0
 36 37  1  0
 34 38  1  0
 24 39  1  0
  7  2  1  0
 13  8  1  0
 37 18  1  0
 39  5  1  0
 27 22  1  0
 38 31  1  0
  1 40  1  0
  1 41  1  0
  1 42  1  0
  3 43  1  0
  9 44  1  0
 10 45  1  0
 11 46  1  0
 13 47  1  0
 14 48  1  0
 14 49  1  0
 16 50  1  0
 16 51  1  0
 17 52  1  0
 19 53  1  0
 19 54  1  0
 21 55  1  0
 21 56  1  0
 23 57  1  0
 25 58  1  0
 26 59  1  0
 29 60  1  0
 29 61  1  0
 30 62  1  0
 30 63  1  0
 32 64  1  0
 32 65  1  0
 33 66  1  0
 33 67  1  0
 34 68  1  0
 35 69  1  0
 35 70  1  0
 37 71  1  0
 37 72  1  0
 38 73  1  0
 38 74  1  0
 39 75  1  0
M  END
>  <candidate_id>  (1) 
CAND_61168e1ccf

>  <source_generator>  (1) 
v5_3_model_guided_macrocycle

>  <parent_mol_id>  (1) 
JAK2_5e05d7987e

>  <canonical_smiles>  (1) 
Cc1cnc2nc1-c1cccc(c1)COCC=C1COCc3cc(ccc3OCCN3CCC(COC1)C3)N2

>  <inchikey>  (1) 
QYOOWLVECWBYGQ-UHFFFAOYSA-N

>  <valid_rdkit>  (1) 
True

>  <unique_flag>  (1) 
True

>  <novel_flag>  (1) 
True

>  <mw>  (1) 
528.653

>  <logp>  (1) 
4.8997

>  <tpsa>  (1) 
77.97

>  <hbd>  (1) 
1

>  <hba>  (1) 
8

>  <rotatable_bonds>  (1) 
0

>  <qed>  (1) 
0.4131

>  <sa_score>  (1) 
4.893

>  <murcko_scaffold>  (1) 
C1=C2COCc3cc(ccc3OCCN3CCC(COC2)C3)Nc2nccc(n2)-c2cccc(c2)COC1

>  <max_ring_size>  (1) 
18

>  <has_macrocycle_12_20>  (1) 
True

>  <has_constrained_ring_8_11>  (1) 
False

>  <passes_basic_filters>  (1) 
True

>  <generation_notes>  (1) 
v5_3_model_guided_anchor_pair=17-32;anchor_scores=0.312,0.079;linker_length=3;target_ring=14;linker_prob=0.523;chemotype=oxa

$$$$
