CAND_581788b33e
     RDKit          3D

 71 76  0  0  0  0  0  0  0  0999 V2000
    0.9233    3.0171   -0.3803 C   0  0  0  0  0  0  0  0  0  0  0  0
    0.0802    2.0101   -0.0740 C   0  0  0  0  0  0  0  0  0  0  0  0
   -1.0187    2.0801    0.9683 C   0  0  0  0  0  0  0  0  0  0  0  0
   -2.3149    2.6571    0.3768 C   0  0  0  0  0  0  0  0  0  0  0  0
   -3.5800    2.4186    1.2198 C   0  0  0  0  0  0  0  0  0  0  0  0
   -3.9094    0.9453    1.4795 C   0  0  0  0  0  0  0  0  0  0  0  0
   -5.3317    0.6701    1.9819 C   0  0  0  0  0  0  0  0  0  0  0  0
   -5.6875   -0.7150    1.4163 C   0  0  0  0  0  0  0  0  0  0  0  0
   -4.4612   -1.1559    0.7611 N   0  0  0  0  0  0  0  0  0  0  0  0
   -4.6060   -2.2424   -0.2101 C   0  0  0  0  0  0  0  0  0  0  0  0
   -3.3231   -2.5721   -1.0230 C   0  0  0  0  0  0  0  0  0  0  0  0
   -2.2014   -2.5837   -0.1421 O   0  0  0  0  0  0  0  0  0  0  0  0
   -0.9901   -2.9309   -0.6648 C   0  0  0  0  0  0  0  0  0  0  0  0
   -0.4264   -4.0651   -0.0666 C   0  0  0  0  0  0  0  0  0  0  0  0
    0.9127   -4.4023   -0.2757 C   0  0  0  0  0  0  0  0  0  0  0  0
    1.7308   -3.5880   -1.0572 C   0  0  0  0  0  0  0  0  0  0  0  0
    1.1471   -2.4811   -1.6837 C   0  0  0  0  0  0  0  0  0  0  0  0
   -0.2159   -2.1379   -1.5213 C   0  0  0  0  0  0  0  0  0  0  0  0
   -0.6819   -0.8859   -2.2288 C   0  0  0  0  0  0  0  0  0  0  0  0
   -0.8965    0.2454   -1.3893 O   0  0  0  0  0  0  0  0  0  0  0  0
    0.2892    0.6569   -0.7214 C   0  0  0  0  0  0  0  0  0  0  0  0
    3.1079   -3.8177   -1.0899 N   0  0  0  0  0  0  0  0  0  0  0  0
    4.1731   -2.9207   -1.0332 C   0  0  0  0  0  0  0  0  0  0  0  0
    5.3951   -3.4633   -1.1595 N   0  0  0  0  0  0  0  0  0  0  0  0
    6.4510   -2.6371   -1.0463 C   0  0  0  0  0  0  0  0  0  0  0  0
    6.3397   -1.2955   -0.7880 C   0  0  0  0  0  0  0  0  0  0  0  0
    5.0533   -0.8283   -0.6476 C   0  0  0  0  0  0  0  0  0  0  0  0
    3.9682   -1.6164   -0.7905 N   0  0  0  0  0  0  0  0  0  0  0  0
    4.7863    0.5796   -0.3356 C   0  0  0  0  0  0  0  0  0  0  0  0
    5.3129    1.7169   -0.9202 C   0  0  0  0  0  0  0  0  0  0  0  0
    4.8004    2.9172   -0.3452 C   0  0  0  0  0  0  0  0  0  0  0  0
    3.8932    2.6727    0.6672 C   0  0  0  0  0  0  0  0  0  0  0  0
    3.7271    0.9902    0.9523 S   0  0  0  0  0  0  0  0  0  0  0  0
    3.0968    3.6651    1.4678 C   0  0  0  0  0  0  0  0  0  0  0  0
    2.4805    4.5825    0.5532 O   0  0  0  0  0  0  0  0  0  0  0  0
    1.0892    4.3297    0.3137 C   0  0  0  0  0  0  0  0  0  0  0  0
   -3.8213    0.0495    0.2548 C   0  0  0  0  0  0  0  0  0  0  0  0
    1.6502    2.8569   -1.1767 H   0  0  0  0  0  0  0  0  0  0  0  0
   -1.1775    1.0754    1.3738 H   0  0  0  0  0  0  0  0  0  0  0  0
   -0.7085    2.6865    1.8265 H   0  0  0  0  0  0  0  0  0  0  0  0
   -2.4860    2.2618   -0.6317 H   0  0  0  0  0  0  0  0  0  0  0  0
   -2.1893    3.7405    0.2492 H   0  0  0  0  0  0  0  0  0  0  0  0
   -4.4205    2.8930    0.6974 H   0  0  0  0  0  0  0  0  0  0  0  0
   -3.4823    2.9384    2.1807 H   0  0  0  0  0  0  0  0  0  0  0  0
   -3.2112    0.5705    2.2424 H   0  0  0  0  0  0  0  0  0  0  0  0
   -6.0432    1.4177    1.6136 H   0  0  0  0  0  0  0  0  0  0  0  0
   -5.3641    0.6792    3.0766 H   0  0  0  0  0  0  0  0  0  0  0  0
   -5.9868   -1.4051    2.2112 H   0  0  0  0  0  0  0  0  0  0  0  0
   -6.5190   -0.6174    0.7079 H   0  0  0  0  0  0  0  0  0  0  0  0
   -4.8870   -3.1437    0.3483 H   0  0  0  0  0  0  0  0  0  0  0  0
   -5.4169   -2.0340   -0.9189 H   0  0  0  0  0  0  0  0  0  0  0  0
   -3.2094   -1.8129   -1.7973 H   0  0  0  0  0  0  0  0  0  0  0  0
   -3.4354   -3.5516   -1.5026 H   0  0  0  0  0  0  0  0  0  0  0  0
   -1.0226   -4.6549    0.6262 H   0  0  0  0  0  0  0  0  0  0  0  0
    1.3276   -5.2576    0.2504 H   0  0  0  0  0  0  0  0  0  0  0  0
    1.7835   -1.8411   -2.2943 H   0  0  0  0  0  0  0  0  0  0  0  0
   -1.6060   -1.0891   -2.7743 H   0  0  0  0  0  0  0  0  0  0  0  0
    0.0283   -0.5991   -3.0162 H   0  0  0  0  0  0  0  0  0  0  0  0
    1.1227    0.6903   -1.4340 H   0  0  0  0  0  0  0  0  0  0  0  0
    0.5413   -0.0654    0.0638 H   0  0  0  0  0  0  0  0  0  0  0  0
    3.4359   -4.7688   -1.0335 H   0  0  0  0  0  0  0  0  0  0  0  0
    7.4226   -3.1084   -1.1631 H   0  0  0  0  0  0  0  0  0  0  0  0
    7.2086   -0.6621   -0.6794 H   0  0  0  0  0  0  0  0  0  0  0  0
    6.0140    1.6953   -1.7457 H   0  0  0  0  0  0  0  0  0  0  0  0
    5.0548    3.9170   -0.6780 H   0  0  0  0  0  0  0  0  0  0  0  0
    2.3610    3.2012    2.1348 H   0  0  0  0  0  0  0  0  0  0  0  0
    3.7878    4.2445    2.0901 H   0  0  0  0  0  0  0  0  0  0  0  0
    0.7290    5.1274   -0.3437 H   0  0  0  0  0  0  0  0  0  0  0  0
    0.5427    4.4064    1.2576 H   0  0  0  0  0  0  0  0  0  0  0  0
   -2.7824   -0.1261   -0.0073 H   0  0  0  0  0  0  0  0  0  0  0  0
   -4.3541    0.4709   -0.6065 H   0  0  0  0  0  0  0  0  0  0  0  0
  1  2  2  0
  2  3  1  0
  3  4  1  0
  4  5  1  0
  5  6  1  0
  6  7  1  0
  7  8  1  0
  8  9  1  0
  9 10  1  0
 10 11  1  0
 11 12  1  0
 12 13  1  0
 13 14  2  0
 14 15  1  0
 15 16  2  0
 16 17  1  0
 17 18  2  0
 18 19  1  0
 19 20  1  0
 20 21  1  0
 16 22  1  0
 22 23  1  0
 23 24  1  0
 24 25  2  0
 25 26  1  0
 26 27  2  0
 27 28  1  0
 27 29  1  0
 29 30  2  0
 30 31  1  0
 31 32  2  0
 32 33  1  0
 32 34  1  0
 34 35  1  0
 35 36  1  0
  9 37  1  0
 36  1  1  0
 21  2  1  0
 28 23  2  0
 33 29  1  0
 37  6  1  0
 18 13  1  0
  1 38  1  0
  3 39  1  0
  3 40  1  0
  4 41  1  0
  4 42  1  0
  5 43  1  0
  5 44  1  0
  6 45  1  0
  7 46  1  0
  7 47  1  0
  8 48  1  0
  8 49  1  0
 10 50  1  0
 10 51  1  0
 11 52  1  0
 11 53  1  0
 14 54  1  0
 15 55  1  0
 17 56  1  0
 19 57  1  0
 19 58  1  0
 21 59  1  0
 21 60  1  0
 22 61  1  0
 25 62  1  0
 26 63  1  0
 30 64  1  0
 31 65  1  0
 34 66  1  0
 34 67  1  0
 36 68  1  0
 36 69  1  0
 37 70  1  0
 37 71  1  0
M  END
>  <candidate_id>  (1) 
CAND_581788b33e

>  <source_generator>  (1) 
v5_3_model_guided_macrocycle

>  <parent_mol_id>  (1) 
JAK2_522c241c10

>  <canonical_smiles>  (1) 
C1=C2\CCCC3CCN(CCOc4ccc(cc4COC2)Nc2nccc(n2)-c2ccc(s2)COC/1)C3

>  <inchikey>  (1) 
NACCYHOXPWKCRJ-LSHDLFTRSA-N

>  <valid_rdkit>  (1) 
True

>  <unique_flag>  (1) 
True

>  <novel_flag>  (1) 
True

>  <mw>  (1) 
518.683

>  <logp>  (1) 
5.8065

>  <tpsa>  (1) 
68.74

>  <hbd>  (1) 
1

>  <hba>  (1) 
8

>  <rotatable_bonds>  (1) 
0

>  <qed>  (1) 
0.377

>  <sa_score>  (1) 
5.24

>  <murcko_scaffold>  (1) 
C1=C2\CCCC3CCN(CCOc4ccc(cc4COC2)Nc2nccc(n2)-c2ccc(s2)COC/1)C3

>  <max_ring_size>  (1) 
18

>  <has_macrocycle_12_20>  (1) 
True

>  <has_constrained_ring_8_11>  (1) 
False

>  <passes_basic_filters>  (1) 
True

>  <generation_notes>  (1) 
v5_3_model_guided_anchor_pair=1-16;anchor_scores=0.312,0.079;linker_length=3;target_ring=14;linker_prob=0.414;chemotype=alkyl

$$$$
