CAND_661d99e302
     RDKit          3D

 57 61  0  0  0  0  0  0  0  0999 V2000
   -3.4272   -1.8836   -2.0605 C   0  0  0  0  0  0  0  0  0  0  0  0
   -2.6426   -0.5602   -2.2189 C   0  0  0  0  0  0  0  0  0  0  0  0
   -1.4825   -0.8189   -3.1998 C   0  0  0  0  0  0  0  0  0  0  0  0
   -3.6078    0.4731   -2.8341 C   0  0  0  0  0  0  0  0  0  0  0  0
   -2.1633   -0.0794   -0.8161 C   0  0  1  0  0  0  0  0  0  0  0  0
   -1.2019   -1.0029   -0.2122 N   0  0  0  0  0  0  0  0  0  0  0  0
   -1.4814   -1.8057    0.8640 C   0  0  0  0  0  0  0  0  0  0  0  0
   -2.6169   -2.0125    1.2765 O   0  0  0  0  0  0  0  0  0  0  0  0
   -0.2982   -2.3266    1.5322 C   0  0  0  0  0  0  0  0  0  0  0  0
   -0.2801   -3.2799    2.5419 C   0  0  0  0  0  0  0  0  0  0  0  0
    1.0194   -3.4520    2.9579 N   0  0  0  0  0  0  0  0  0  0  0  0
    1.8372   -2.6072    2.2614 C   0  0  0  0  0  0  0  0  0  0  0  0
    3.1631   -2.4545    2.4359 N   0  0  0  0  0  0  0  0  0  0  0  0
    3.6517   -1.5154    1.5791 C   0  0  0  0  0  0  0  0  0  0  0  0
    2.9068   -0.7949    0.6302 C   0  0  0  0  0  0  0  0  0  0  0  0
    1.5709   -0.9928    0.5028 N   0  0  0  0  0  0  0  0  0  0  0  0
    1.0500   -1.9187    1.3506 C   0  0  0  0  0  0  0  0  0  0  0  0
    3.5644    0.2366   -0.2845 C   0  0  0  0  0  0  0  0  0  0  0  0
    3.4909   -0.0064   -1.7909 C   0  0  0  0  0  0  0  0  0  0  0  0
    4.7921   -0.2034   -1.0835 C   0  0  0  0  0  0  0  0  0  0  0  0
    3.5320    1.6687    0.2254 C   0  0  0  0  0  0  0  0  0  0  0  0
    2.0437    2.5632   -0.3142 S   0  0  0  0  0  0  0  0  0  0  0  0
    1.0567    2.5043    1.2029 C   0  0  0  0  0  0  0  0  0  0  0  0
   -0.4019    2.9061    0.9560 C   0  0  0  0  0  0  0  0  0  0  0  0
   -1.2658    2.8812    2.2435 C   0  0  0  0  0  0  0  0  0  0  0  0
   -2.2517    3.9355    2.3455 C   0  0  0  0  0  0  0  0  0  0  0  0
   -3.0380    4.7816    2.4528 N   0  0  0  0  0  0  0  0  0  0  0  0
   -1.8117    1.5135    1.7915 C   0  0  0  0  0  0  0  0  0  0  0  0
   -1.2298    1.7948    0.4972 N   0  0  0  0  0  0  0  0  0  0  0  0
   -1.4318    1.2896   -0.7634 C   0  0  0  0  0  0  0  0  0  0  0  0
   -1.0018    1.8674   -1.7584 O   0  0  0  0  0  0  0  0  0  0  0  0
   -3.8458   -2.2129   -3.0187 H   0  0  0  0  0  0  0  0  0  0  0  0
   -2.7865   -2.6924   -1.6932 H   0  0  0  0  0  0  0  0  0  0  0  0
   -4.2608   -1.7681   -1.3587 H   0  0  0  0  0  0  0  0  0  0  0  0
   -0.9121    0.0877   -3.4180 H   0  0  0  0  0  0  0  0  0  0  0  0
   -1.8604   -1.1949   -4.1580 H   0  0  0  0  0  0  0  0  0  0  0  0
   -0.7847   -1.5687   -2.8117 H   0  0  0  0  0  0  0  0  0  0  0  0
   -4.0356    0.1029   -3.7731 H   0  0  0  0  0  0  0  0  0  0  0  0
   -3.1086    1.4194   -3.0621 H   0  0  0  0  0  0  0  0  0  0  0  0
   -4.4399    0.6883   -2.1542 H   0  0  0  0  0  0  0  0  0  0  0  0
   -3.0393   -0.0016   -0.1597 H   0  0  0  0  0  0  0  0  0  0  0  0
   -0.2237   -0.8882   -0.4782 H   0  0  0  0  0  0  0  0  0  0  0  0
   -1.0880   -3.8372    2.9999 H   0  0  0  0  0  0  0  0  0  0  0  0
    1.3388   -4.0764    3.6854 H   0  0  0  0  0  0  0  0  0  0  0  0
    4.7213   -1.3446    1.6717 H   0  0  0  0  0  0  0  0  0  0  0  0
    3.3975    0.8456   -2.4564 H   0  0  0  0  0  0  0  0  0  0  0  0
    2.9568   -0.8823   -2.1448 H   0  0  0  0  0  0  0  0  0  0  0  0
    5.5802    0.5159   -1.2796 H   0  0  0  0  0  0  0  0  0  0  0  0
    5.1548   -1.2223   -0.9972 H   0  0  0  0  0  0  0  0  0  0  0  0
    4.3869    2.2244   -0.1761 H   0  0  0  0  0  0  0  0  0  0  0  0
    3.6309    1.7048    1.3161 H   0  0  0  0  0  0  0  0  0  0  0  0
    1.1173    1.5078    1.6515 H   0  0  0  0  0  0  0  0  0  0  0  0
    1.5095    3.2102    1.9078 H   0  0  0  0  0  0  0  0  0  0  0  0
   -0.5221    3.8139    0.3519 H   0  0  0  0  0  0  0  0  0  0  0  0
   -0.6769    2.8046    3.1671 H   0  0  0  0  0  0  0  0  0  0  0  0
   -1.3547    0.6577    2.2952 H   0  0  0  0  0  0  0  0  0  0  0  0
   -2.8996    1.4055    1.7820 H   0  0  0  0  0  0  0  0  0  0  0  0
  1  2  1  0
  2  3  1  0
  2  4  1  0
  2  5  1  0
  5  6  1  0
  6  7  1  0
  7  8  2  0
  7  9  1  0
  9 10  2  0
 10 11  1  0
 11 12  1  0
 12 13  2  0
 13 14  1  0
 14 15  2  0
 15 16  1  0
 16 17  2  0
 15 18  1  0
 18 19  1  0
 19 20  1  0
 18 21  1  0
 21 22  1  0
 22 23  1  0
 23 24  1  0
 24 25  1  0
 25 26  1  0
 26 27  3  0
 25 28  1  0
 28 29  1  0
 29 30  1  0
 30 31  2  0
 30  5  1  0
 17  9  1  0
 20 18  1  0
 29 24  1  0
 17 12  1  0
  1 32  1  0
  1 33  1  0
  1 34  1  0
  3 35  1  0
  3 36  1  0
  3 37  1  0
  4 38  1  0
  4 39  1  0
  4 40  1  0
  5 41  1  1
  6 42  1  0
 10 43  1  0
 11 44  1  0
 14 45  1  0
 19 46  1  0
 19 47  1  0
 20 48  1  0
 20 49  1  0
 21 50  1  0
 21 51  1  0
 23 52  1  0
 23 53  1  0
 24 54  1  0
 25 55  1  0
 28 56  1  0
 28 57  1  0
M  END
>  <candidate_id>  (1) 
CAND_661d99e302

>  <source_generator>  (1) 
v5_3_model_guided_macrocycle

>  <parent_mol_id>  (1) 
JAK2_1a53985c87

>  <canonical_smiles>  (1) 
CC(C)(C)[C@H]1NC(=O)c2c[nH]c3ncc(nc23)C2(CC2)CSCC2C(C#N)CN2C1=O

>  <inchikey>  (1) 
CFHMOIZBUKZHPX-AJUCZRQESA-N

>  <valid_rdkit>  (1) 
True

>  <unique_flag>  (1) 
True

>  <novel_flag>  (1) 
True

>  <mw>  (1) 
438.557

>  <logp>  (1) 
2.2314

>  <tpsa>  (1) 
114.77

>  <hbd>  (1) 
2

>  <hba>  (1) 
6

>  <rotatable_bonds>  (1) 
0

>  <qed>  (1) 
0.6518

>  <sa_score>  (1) 
4.642

>  <murcko_scaffold>  (1) 
O=C1NCC(=O)N2CCC2CSCC2(CC2)c2cnc3[nH]cc1c3n2

>  <max_ring_size>  (1) 
14

>  <has_macrocycle_12_20>  (1) 
True

>  <has_constrained_ring_8_11>  (1) 
False

>  <passes_basic_filters>  (1) 
True

>  <generation_notes>  (1) 
v5_3_model_guided_anchor_pair=15-23;anchor_scores=0.691,0.079;linker_length=3;target_ring=13;linker_prob=0.353;chemotype=thioether

$$$$
