CAND_bb18276fcc
     RDKit          3D

 55 60  0  0  0  0  0  0  0  0999 V2000
   -4.5551    4.2042    0.8461 N   0  0  0  0  0  0  0  0  0  0  0  0
   -3.5803    3.7638    1.2951 C   0  0  0  0  0  0  0  0  0  0  0  0
   -2.3429    3.2142    1.8709 C   0  0  2  0  0  0  0  0  0  0  0  0
   -1.1063    3.7348    1.1382 C   0  0  0  0  0  0  0  0  0  0  0  0
   -0.9371    2.7780   -0.0579 C   0  0  0  0  0  0  0  0  0  0  0  0
    0.5367    2.6114   -0.5064 C   0  0  0  0  0  0  0  0  0  0  0  0
    1.6569    1.9188    0.7702 S   0  0  0  0  0  0  0  0  0  0  0  0
    3.1585    1.6549   -0.2206 C   0  0  0  0  0  0  0  0  0  0  0  0
    3.1789    0.3562   -1.0077 C   0  0  0  0  0  0  0  0  0  0  0  0
    4.1014    0.2922   -2.2229 C   0  0  0  0  0  0  0  0  0  0  0  0
    2.6211    0.3601   -2.4259 C   0  0  0  0  0  0  0  0  0  0  0  0
    3.0213   -0.9210   -0.1815 C   0  0  0  0  0  0  0  0  0  0  0  0
    4.1224   -1.5995    0.3665 C   0  0  0  0  0  0  0  0  0  0  0  0
    4.0705   -2.7221    1.1402 N   0  0  0  0  0  0  0  0  0  0  0  0
    2.7907   -3.0853    1.3535 C   0  0  0  0  0  0  0  0  0  0  0  0
    2.3538   -4.1255    2.1257 N   0  0  0  0  0  0  0  0  0  0  0  0
    0.9777   -4.1229    2.1677 C   0  0  0  0  0  0  0  0  0  0  0  0
    0.5149   -3.0769    1.3803 C   0  0  0  0  0  0  0  0  0  0  0  0
    1.6696   -2.4486    0.8457 C   0  0  0  0  0  0  0  0  0  0  0  0
    1.7613   -1.3693    0.0283 N   0  0  0  0  0  0  0  0  0  0  0  0
   -0.8703   -2.6604    1.2094 C   0  0  0  0  0  0  0  0  0  0  0  0
   -1.7879   -3.1125    1.8858 O   0  0  0  0  0  0  0  0  0  0  0  0
   -1.0347   -1.6782    0.2691 N   0  0  0  0  0  0  0  0  0  0  0  0
   -2.2394   -0.8859    0.1134 C   0  0  2  0  0  0  0  0  0  0  0  0
   -3.2550   -1.6609   -0.6863 C   0  0  0  0  0  0  0  0  0  0  0  0
   -3.1008   -1.9609   -2.1581 C   0  0  0  0  0  0  0  0  0  0  0  0
   -4.1767   -1.0148   -1.6930 C   0  0  0  0  0  0  0  0  0  0  0  0
   -1.7365    0.4552   -0.4900 C   0  0  0  0  0  0  0  0  0  0  0  0
   -1.3137    0.5252   -1.6487 O   0  0  0  0  0  0  0  0  0  0  0  0
   -1.6184    1.5451    0.3576 N   0  0  0  0  0  0  0  0  0  0  0  0
   -2.2604    1.7054    1.6547 C   0  0  0  0  0  0  0  0  0  0  0  0
   -2.3093    3.4610    2.9375 H   0  0  0  0  0  0  0  0  0  0  0  0
   -0.2533    3.6840    1.8229 H   0  0  0  0  0  0  0  0  0  0  0  0
   -1.1950    4.7762    0.8094 H   0  0  0  0  0  0  0  0  0  0  0  0
   -1.5060    3.1683   -0.9125 H   0  0  0  0  0  0  0  0  0  0  0  0
    0.9308    3.5925   -0.7933 H   0  0  0  0  0  0  0  0  0  0  0  0
    0.5828    1.9710   -1.3871 H   0  0  0  0  0  0  0  0  0  0  0  0
    3.3049    2.5225   -0.8743 H   0  0  0  0  0  0  0  0  0  0  0  0
    4.0055    1.6499    0.4752 H   0  0  0  0  0  0  0  0  0  0  0  0
    4.6866    1.1681   -2.4816 H   0  0  0  0  0  0  0  0  0  0  0  0
    4.5906   -0.6426   -2.4762 H   0  0  0  0  0  0  0  0  0  0  0  0
    2.2147    1.2764   -2.8378 H   0  0  0  0  0  0  0  0  0  0  0  0
    2.1038   -0.5287   -2.7741 H   0  0  0  0  0  0  0  0  0  0  0  0
    5.1289   -1.2313    0.1864 H   0  0  0  0  0  0  0  0  0  0  0  0
    2.9668   -4.7581    2.6199 H   0  0  0  0  0  0  0  0  0  0  0  0
    0.4392   -4.8464    2.7668 H   0  0  0  0  0  0  0  0  0  0  0  0
   -0.2150   -1.3795   -0.2600 H   0  0  0  0  0  0  0  0  0  0  0  0
   -2.6564   -0.7323    1.1107 H   0  0  0  0  0  0  0  0  0  0  0  0
   -3.6783   -2.4576   -0.0788 H   0  0  0  0  0  0  0  0  0  0  0  0
   -3.4012   -2.9433   -2.5053 H   0  0  0  0  0  0  0  0  0  0  0  0
   -2.2548   -1.5503   -2.6967 H   0  0  0  0  0  0  0  0  0  0  0  0
   -5.2041   -1.3600   -1.7336 H   0  0  0  0  0  0  0  0  0  0  0  0
   -4.0594    0.0339   -1.9408 H   0  0  0  0  0  0  0  0  0  0  0  0
   -3.2379    1.2145    1.6784 H   0  0  0  0  0  0  0  0  0  0  0  0
   -1.6040    1.2371    2.3968 H   0  0  0  0  0  0  0  0  0  0  0  0
  1  2  3  0
  2  3  1  0
  3  4  1  0
  4  5  1  0
  5  6  1  0
  6  7  1  0
  7  8  1  0
  8  9  1  0
  9 10  1  0
 10 11  1  0
  9 12  1  0
 12 13  2  0
 13 14  1  0
 14 15  2  0
 15 16  1  0
 16 17  1  0
 17 18  2  0
 18 19  1  0
 19 20  2  0
 18 21  1  0
 21 22  2  0
 21 23  1  0
 23 24  1  0
 24 25  1  0
 25 26  1  0
 26 27  1  0
 24 28  1  0
 28 29  2  0
 28 30  1  0
 30 31  1  0
 31  3  1  0
 30  5  1  0
 11  9  1  0
 20 12  1  0
 27 25  1  0
 19 15  1  0
  3 32  1  1
  4 33  1  0
  4 34  1  0
  5 35  1  0
  6 36  1  0
  6 37  1  0
  8 38  1  0
  8 39  1  0
 10 40  1  0
 10 41  1  0
 11 42  1  0
 11 43  1  0
 13 44  1  0
 16 45  1  0
 17 46  1  0
 23 47  1  0
 24 48  1  1
 25 49  1  0
 26 50  1  0
 26 51  1  0
 27 52  1  0
 27 53  1  0
 31 54  1  0
 31 55  1  0
M  END
>  <candidate_id>  (1) 
CAND_bb18276fcc

>  <source_generator>  (1) 
v5_3_model_guided_macrocycle

>  <parent_mol_id>  (1) 
JAK2_69b6c7ad6e

>  <canonical_smiles>  (1) 
N#C[C@@H]1CC2CSCC3(CC3)c3cnc4[nH]cc(c4n3)C(=O)N[C@H](C3CC3)C(=O)N2C1

>  <inchikey>  (1) 
LPLMSPHZWKDSFN-WAPNNBGYSA-N

>  <valid_rdkit>  (1) 
True

>  <unique_flag>  (1) 
True

>  <novel_flag>  (1) 
True

>  <mw>  (1) 
436.541

>  <logp>  (1) 
1.9854

>  <tpsa>  (1) 
114.77

>  <hbd>  (1) 
2

>  <hba>  (1) 
6

>  <rotatable_bonds>  (1) 
1

>  <qed>  (1) 
0.7065

>  <sa_score>  (1) 
4.756

>  <murcko_scaffold>  (1) 
O=C1N[C@H](C2CC2)C(=O)N2CCCC2CSCC2(CC2)c2cnc3[nH]cc1c3n2

>  <max_ring_size>  (1) 
14

>  <has_macrocycle_12_20>  (1) 
True

>  <has_constrained_ring_8_11>  (1) 
False

>  <passes_basic_filters>  (1) 
True

>  <generation_notes>  (1) 
v5_3_model_guided_anchor_pair=19-4;anchor_scores=0.691,0.079;linker_length=3;target_ring=13;linker_prob=0.234;chemotype=thioether

$$$$
