CAND_0e55be250e
     RDKit          3D

 60 65  0  0  0  0  0  0  0  0999 V2000
   -4.3834   -5.1544   -1.3532 N   0  0  0  0  0  0  0  0  0  0  0  0
   -3.6665   -4.2434   -1.3119 C   0  0  0  0  0  0  0  0  0  0  0  0
   -2.7781   -3.0963   -1.2486 C   0  0  0  0  0  0  0  0  0  0  0  0
   -1.3110   -3.5615   -1.1147 C   0  0  0  0  0  0  0  0  0  0  0  0
   -0.2948   -2.4213   -1.1398 C   0  0  0  0  0  0  0  0  0  0  0  0
    0.9962   -2.9164   -0.7942 O   0  0  0  0  0  0  0  0  0  0  0  0
    1.9665   -1.8757   -0.8807 C   0  0  0  0  0  0  0  0  0  0  0  0
    3.1034   -2.2451   -0.0695 N   0  0  0  0  0  0  0  0  0  0  0  0
    3.9965   -1.1245    0.2017 C   0  0  0  0  0  0  0  0  0  0  0  0
    3.4253   -0.0432    1.1175 C   0  0  0  0  0  0  0  0  0  0  0  0
    2.5834   -0.4349    2.3341 C   0  0  0  0  0  0  0  0  0  0  0  0
    3.9853    0.0352    2.5388 C   0  0  0  0  0  0  0  0  0  0  0  0
    3.1106    1.2900    0.4279 C   0  0  0  0  0  0  0  0  0  0  0  0
    4.1498    2.1683    0.0783 C   0  0  0  0  0  0  0  0  0  0  0  0
    4.0017    3.3781   -0.5183 N   0  0  0  0  0  0  0  0  0  0  0  0
    2.6999    3.6440   -0.7310 C   0  0  0  0  0  0  0  0  0  0  0  0
    2.2040    4.7803   -1.3022 N   0  0  0  0  0  0  0  0  0  0  0  0
    0.8356    4.7092   -1.3473 C   0  0  0  0  0  0  0  0  0  0  0  0
    0.4327    3.4962   -0.7999 C   0  0  0  0  0  0  0  0  0  0  0  0
    1.6258    2.8216   -0.4100 C   0  0  0  0  0  0  0  0  0  0  0  0
    1.8065    1.6036    0.1786 N   0  0  0  0  0  0  0  0  0  0  0  0
   -0.9545    3.0659   -0.6822 C   0  0  0  0  0  0  0  0  0  0  0  0
   -1.8923    3.7758   -1.0302 O   0  0  0  0  0  0  0  0  0  0  0  0
   -1.1168    1.8168   -0.1371 N   0  0  0  0  0  0  0  0  0  0  0  0
   -2.4103    1.1502   -0.0849 C   0  0  2  0  0  0  0  0  0  0  0  0
   -2.5163    0.5233    1.2782 C   0  0  0  0  0  0  0  0  0  0  0  0
   -3.8490    0.3654    1.9724 C   0  0  0  0  0  0  0  0  0  0  0  0
   -2.8725    1.3943    2.4626 C   0  0  0  0  0  0  0  0  0  0  0  0
   -2.5128    0.2379   -1.3355 C   0  0  0  0  0  0  0  0  0  0  0  0
   -2.1808    0.6641   -2.4500 O   0  0  0  0  0  0  0  0  0  0  0  0
   -2.9586   -1.0491   -1.2474 N   0  0  0  0  0  0  0  0  0  0  0  0
   -3.0800   -2.0261   -2.3299 C   0  0  0  0  0  0  0  0  0  0  0  0
   -3.2505   -2.0246   -0.2178 C   0  0  0  0  0  0  0  0  0  0  0  0
   -1.0594   -4.2614   -1.9230 H   0  0  0  0  0  0  0  0  0  0  0  0
   -1.1855   -4.1285   -0.1822 H   0  0  0  0  0  0  0  0  0  0  0  0
   -0.2530   -1.9625   -2.1338 H   0  0  0  0  0  0  0  0  0  0  0  0
   -0.5583   -1.6575   -0.4029 H   0  0  0  0  0  0  0  0  0  0  0  0
    2.2602   -1.7525   -1.9287 H   0  0  0  0  0  0  0  0  0  0  0  0
    1.5171   -0.9438   -0.5280 H   0  0  0  0  0  0  0  0  0  0  0  0
    2.7577   -2.6578    0.7906 H   0  0  0  0  0  0  0  0  0  0  0  0
    4.9022   -1.5361    0.6637 H   0  0  0  0  0  0  0  0  0  0  0  0
    4.3377   -0.6911   -0.7472 H   0  0  0  0  0  0  0  0  0  0  0  0
    1.7774    0.2263    2.6371 H   0  0  0  0  0  0  0  0  0  0  0  0
    2.3757   -1.4775    2.5407 H   0  0  0  0  0  0  0  0  0  0  0  0
    4.7185   -0.6986    2.8570 H   0  0  0  0  0  0  0  0  0  0  0  0
    4.1225    1.0073    3.0014 H   0  0  0  0  0  0  0  0  0  0  0  0
    5.1818    1.8990    0.2892 H   0  0  0  0  0  0  0  0  0  0  0  0
    2.7769    5.5447   -1.6310 H   0  0  0  0  0  0  0  0  0  0  0  0
    0.2498    5.5182   -1.7664 H   0  0  0  0  0  0  0  0  0  0  0  0
   -0.2784    1.3018    0.1135 H   0  0  0  0  0  0  0  0  0  0  0  0
   -3.2067    1.8955   -0.2065 H   0  0  0  0  0  0  0  0  0  0  0  0
   -1.7316   -0.2015    1.4636 H   0  0  0  0  0  0  0  0  0  0  0  0
   -4.0065   -0.5110    2.5913 H   0  0  0  0  0  0  0  0  0  0  0  0
   -4.7454    0.7209    1.4755 H   0  0  0  0  0  0  0  0  0  0  0  0
   -3.1026    2.4406    2.2881 H   0  0  0  0  0  0  0  0  0  0  0  0
   -2.3629    1.2090    3.4017 H   0  0  0  0  0  0  0  0  0  0  0  0
   -2.3417   -1.9270   -3.1296 H   0  0  0  0  0  0  0  0  0  0  0  0
   -4.0868   -2.0283   -2.7627 H   0  0  0  0  0  0  0  0  0  0  0  0
   -4.3121   -2.0345    0.0524 H   0  0  0  0  0  0  0  0  0  0  0  0
   -2.6416   -1.9974    0.6852 H   0  0  0  0  0  0  0  0  0  0  0  0
  1  2  3  0
  2  3  1  0
  3  4  1  0
  4  5  1  0
  5  6  1  0
  6  7  1  0
  7  8  1  0
  8  9  1  0
  9 10  1  0
 10 11  1  0
 11 12  1  0
 10 13  1  0
 13 14  2  0
 14 15  1  0
 15 16  2  0
 16 17  1  0
 17 18  1  0
 18 19  2  0
 19 20  1  0
 20 21  2  0
 19 22  1  0
 22 23  2  0
 22 24  1  0
 24 25  1  0
 25 26  1  0
 26 27  1  0
 27 28  1  0
 25 29  1  0
 29 30  2  0
 29 31  1  0
 31 32  1  0
 31 33  1  0
 32  3  1  0
 33  3  1  0
 12 10  1  0
 21 13  1  0
 28 26  1  0
 20 16  1  0
  4 34  1  0
  4 35  1  0
  5 36  1  0
  5 37  1  0
  7 38  1  0
  7 39  1  0
  8 40  1  0
  9 41  1  0
  9 42  1  0
 11 43  1  0
 11 44  1  0
 12 45  1  0
 12 46  1  0
 14 47  1  0
 17 48  1  0
 18 49  1  0
 24 50  1  0
 25 51  1  6
 26 52  1  0
 27 53  1  0
 27 54  1  0
 28 55  1  0
 28 56  1  0
 32 57  1  0
 32 58  1  0
 33 59  1  0
 33 60  1  0
M  END
>  <candidate_id>  (1) 
CAND_0e55be250e

>  <source_generator>  (1) 
v5_3_model_guided_macrocycle

>  <parent_mol_id>  (1) 
JAK2_c385760536

>  <canonical_smiles>  (1) 
N#CC12CCOCNCC3(CC3)c3cnc4[nH]cc(c4n3)C(=O)N[C@H](C3CC3)C(=O)N(C1)C2

>  <inchikey>  (1) 
ADIZWLKTINMVGG-QGZVFWFLSA-N

>  <valid_rdkit>  (1) 
True

>  <unique_flag>  (1) 
True

>  <novel_flag>  (1) 
True

>  <mw>  (1) 
449.515

>  <logp>  (1) 
0.8175

>  <tpsa>  (1) 
136.03

>  <hbd>  (1) 
3

>  <hba>  (1) 
7

>  <rotatable_bonds>  (1) 
1

>  <qed>  (1) 
0.5863

>  <sa_score>  (1) 
4.328

>  <murcko_scaffold>  (1) 
O=C1N[C@H](C2CC2)C(=O)N2CC(CCOCNCC3(CC3)c3cnc4[nH]cc1c4n3)C2

>  <max_ring_size>  (1) 
18

>  <has_macrocycle_12_20>  (1) 
True

>  <has_constrained_ring_8_11>  (1) 
False

>  <passes_basic_filters>  (1) 
True

>  <generation_notes>  (1) 
v5_3_model_guided_anchor_pair=2-18;anchor_scores=0.691,0.691;linker_length=6;target_ring=17;linker_prob=0.209;chemotype=oxa_aza

$$$$
