CAND_0dab0539d2
     RDKit          3D

 67 72  0  0  0  0  0  0  0  0999 V2000
   -2.3049    0.5327    0.9342 O   0  0  0  0  0  0  0  0  0  0  0  0
   -3.5200    0.4191    1.0100 C   0  0  0  0  0  0  0  0  0  0  0  0
   -4.4136    1.4495    1.1337 N   0  0  0  0  0  0  0  0  0  0  0  0
   -4.1646    2.8182    1.1376 C   0  0  0  0  0  0  0  0  0  0  0  0
   -5.1612    3.6554    1.6047 C   0  0  0  0  0  0  0  0  0  0  0  0
   -4.6639    4.9184    1.5710 N   0  0  0  0  0  0  0  0  0  0  0  0
   -3.4310    4.9876    1.0826 N   0  0  0  0  0  0  0  0  0  0  0  0
   -3.1037    3.7191    0.7704 C   0  0  0  0  0  0  0  0  0  0  0  0
   -1.7127    3.4978    0.0420 C   0  0  0  0  0  0  0  0  0  0  0  0
   -0.8321    4.4596   -0.2004 N   0  0  0  0  0  0  0  0  0  0  0  0
    0.2463    3.8451   -0.7893 C   0  0  0  0  0  0  0  0  0  0  0  0
    1.4881    4.3611   -1.1849 C   0  0  0  0  0  0  0  0  0  0  0  0
    2.4492    3.4792   -1.7115 C   0  0  0  0  0  0  0  0  0  0  0  0
    2.1816    2.1068   -1.8677 C   0  0  0  0  0  0  0  0  0  0  0  0
    0.9061    1.6090   -1.5439 C   0  0  0  0  0  0  0  0  0  0  0  0
   -0.0033    2.4974   -0.9763 C   0  0  0  0  0  0  0  0  0  0  0  0
   -1.2503    2.3115   -0.4510 N   0  0  0  0  0  0  0  0  0  0  0  0
    3.2658    1.1835   -2.4088 C   0  0  0  0  0  0  0  0  0  0  0  0
    3.0849   -0.2336   -2.0423 N   0  0  0  0  0  0  0  0  0  0  0  0
    3.9353   -1.1278   -2.8520 C   0  0  0  0  0  0  0  0  0  0  0  0
    5.3912   -1.2164   -2.3785 C   0  0  0  0  0  0  0  0  0  0  0  0
    5.4579   -1.5997   -1.0013 O   0  0  0  0  0  0  0  0  0  0  0  0
    4.7722   -0.6397   -0.1902 C   0  0  0  0  0  0  0  0  0  0  0  0
    3.2841   -0.4885   -0.5857 C   0  0  0  0  0  0  0  0  0  0  0  0
    2.4199   -1.7152   -0.2003 C   0  0  0  0  0  0  0  0  0  0  0  0
    2.2912   -1.9104    1.3167 C   0  0  0  0  0  0  0  0  0  0  0  0
    1.1454   -2.8572    1.6950 C   0  0  0  0  0  0  0  0  0  0  0  0
   -0.2294   -2.1747    1.6555 C   0  0  0  0  0  0  0  0  0  0  0  0
   -1.3450   -3.1582    2.0288 C   0  0  0  0  0  0  0  0  0  0  0  0
   -2.7214   -2.4996    2.1523 C   0  0  0  0  0  0  0  0  0  0  0  0
   -3.4074   -2.0551    0.8594 C   0  0  0  0  0  0  0  0  0  0  0  0
   -2.8900   -2.4473   -0.5170 C   0  0  0  0  0  0  0  0  0  0  0  0
   -4.0694   -3.1629    0.0523 C   0  0  0  0  0  0  0  0  0  0  0  0
   -4.1431   -0.8133    0.9792 N   0  0  0  0  0  0  0  0  0  0  0  0
   -5.3531    1.1878    1.3907 H   0  0  0  0  0  0  0  0  0  0  0  0
   -6.1539    3.4657    1.9856 H   0  0  0  0  0  0  0  0  0  0  0  0
   -5.1094    5.7825    1.8627 H   0  0  0  0  0  0  0  0  0  0  0  0
    1.7032    5.4152   -1.0521 H   0  0  0  0  0  0  0  0  0  0  0  0
    3.4224    3.8798   -1.9879 H   0  0  0  0  0  0  0  0  0  0  0  0
    0.6532    0.5615   -1.6727 H   0  0  0  0  0  0  0  0  0  0  0  0
   -1.6920    1.4152   -0.3073 H   0  0  0  0  0  0  0  0  0  0  0  0
    4.2500    1.5423   -2.0841 H   0  0  0  0  0  0  0  0  0  0  0  0
    3.2239    1.2861   -3.5009 H   0  0  0  0  0  0  0  0  0  0  0  0
    3.9013   -0.8448   -3.9108 H   0  0  0  0  0  0  0  0  0  0  0  0
    3.4973   -2.1324   -2.8042 H   0  0  0  0  0  0  0  0  0  0  0  0
    5.9216   -1.9785   -2.9583 H   0  0  0  0  0  0  0  0  0  0  0  0
    5.9205   -0.2668   -2.5198 H   0  0  0  0  0  0  0  0  0  0  0  0
    5.2922    0.3227   -0.2741 H   0  0  0  0  0  0  0  0  0  0  0  0
    4.8715   -0.9573    0.8518 H   0  0  0  0  0  0  0  0  0  0  0  0
    2.8864    0.3518   -0.0039 H   0  0  0  0  0  0  0  0  0  0  0  0
    2.8262   -2.6340   -0.6404 H   0  0  0  0  0  0  0  0  0  0  0  0
    1.4190   -1.5823   -0.6281 H   0  0  0  0  0  0  0  0  0  0  0  0
    3.2278   -2.3353    1.6964 H   0  0  0  0  0  0  0  0  0  0  0  0
    2.1505   -0.9468    1.8203 H   0  0  0  0  0  0  0  0  0  0  0  0
    1.1529   -3.7359    1.0391 H   0  0  0  0  0  0  0  0  0  0  0  0
    1.3228   -3.2200    2.7152 H   0  0  0  0  0  0  0  0  0  0  0  0
   -0.4151   -1.7552    0.6628 H   0  0  0  0  0  0  0  0  0  0  0  0
   -0.2329   -1.3348    2.3611 H   0  0  0  0  0  0  0  0  0  0  0  0
   -1.3733   -3.9911    1.3177 H   0  0  0  0  0  0  0  0  0  0  0  0
   -1.1009   -3.5985    3.0044 H   0  0  0  0  0  0  0  0  0  0  0  0
   -2.6330   -1.6443    2.8347 H   0  0  0  0  0  0  0  0  0  0  0  0
   -3.3949   -3.2048    2.6575 H   0  0  0  0  0  0  0  0  0  0  0  0
   -1.9678   -3.0035   -0.6233 H   0  0  0  0  0  0  0  0  0  0  0  0
   -3.0563   -1.7570   -1.3376 H   0  0  0  0  0  0  0  0  0  0  0  0
   -5.0355   -2.9783   -0.4027 H   0  0  0  0  0  0  0  0  0  0  0  0
   -3.9274   -4.1923    0.3639 H   0  0  0  0  0  0  0  0  0  0  0  0
   -5.1497   -0.8677    1.0203 H   0  0  0  0  0  0  0  0  0  0  0  0
  1  2  2  0
  2  3  1  0
  3  4  1  0
  4  5  2  0
  5  6  1  0
  6  7  1  0
  7  8  2  0
  8  9  1  0
  9 10  2  0
 10 11  1  0
 11 12  2  0
 12 13  1  0
 13 14  2  0
 14 15  1  0
 15 16  2  0
 16 17  1  0
 14 18  1  0
 18 19  1  0
 19 20  1  0
 20 21  1  0
 21 22  1  0
 22 23  1  0
 23 24  1  0
 24 25  1  0
 25 26  1  0
 26 27  1  0
 27 28  1  0
 28 29  1  0
 29 30  1  0
 30 31  1  0
 31 32  1  0
 32 33  1  0
 31 34  1  0
 34  2  1  0
  8  4  1  0
 17  9  1  0
 24 19  1  0
 33 31  1  0
 16 11  1  0
  3 35  1  0
  5 36  1  0
  6 37  1  0
 12 38  1  0
 13 39  1  0
 15 40  1  0
 17 41  1  0
 18 42  1  0
 18 43  1  0
 20 44  1  0
 20 45  1  0
 21 46  1  0
 21 47  1  0
 23 48  1  0
 23 49  1  0
 24 50  1  0
 25 51  1  0
 25 52  1  0
 26 53  1  0
 26 54  1  0
 27 55  1  0
 27 56  1  0
 28 57  1  0
 28 58  1  0
 29 59  1  0
 29 60  1  0
 30 61  1  0
 30 62  1  0
 32 63  1  0
 32 64  1  0
 33 65  1  0
 33 66  1  0
 34 67  1  0
M  END
>  <candidate_id>  (1) 
CAND_0dab0539d2

>  <source_generator>  (1) 
v5_3_model_guided_macrocycle

>  <parent_mol_id>  (1) 
JAK2_dbe7510318

>  <canonical_smiles>  (1) 
O=C1Nc2c[nH]nc2-c2nc3ccc(cc3[nH]2)CN2CCOCC2CCCCCCC2(CC2)N1

>  <inchikey>  (1) 
LEBUQUSWIHAWPD-UHFFFAOYSA-N

>  <valid_rdkit>  (1) 
True

>  <unique_flag>  (1) 
True

>  <novel_flag>  (1) 
True

>  <mw>  (1) 
463.586

>  <logp>  (1) 
4.1621

>  <tpsa>  (1) 
110.96

>  <hbd>  (1) 
4

>  <hba>  (1) 
5

>  <rotatable_bonds>  (1) 
0

>  <qed>  (1) 
0.4

>  <sa_score>  (1) 
4.281

>  <murcko_scaffold>  (1) 
O=C1Nc2c[nH]nc2-c2nc3ccc(cc3[nH]2)CN2CCOCC2CCCCCCC2(CC2)N1

>  <max_ring_size>  (1) 
20

>  <has_macrocycle_12_20>  (1) 
True

>  <has_constrained_ring_8_11>  (1) 
False

>  <passes_basic_filters>  (1) 
True

>  <generation_notes>  (1) 
v5_3_model_guided_anchor_pair=25-16;anchor_scores=0.691,0.079;linker_length=6;target_ring=19;linker_prob=0.167;chemotype=alkyl

$$$$
