CAND_c71340cdb2
     RDKit          3D

 55 60  0  0  0  0  0  0  0  0999 V2000
    6.2825   -1.9723    1.1533 N   0  0  0  0  0  0  0  0  0  0  0  0
    5.7706   -0.9323    1.1046 C   0  0  0  0  0  0  0  0  0  0  0  0
    5.1330    0.3915    1.0344 C   0  0  2  0  0  0  0  0  0  0  0  0
    4.5731    0.8210    2.3916 C   0  0  0  0  0  0  0  0  0  0  0  0
    3.2009    0.1614    2.4440 C   0  0  0  0  0  0  0  0  0  0  0  0
    2.7789    0.0871    1.0574 N   0  0  0  0  0  0  0  0  0  0  0  0
    1.4511   -0.1276    0.7301 C   0  0  0  0  0  0  0  0  0  0  0  0
    0.5956   -0.2151    1.6162 O   0  0  0  0  0  0  0  0  0  0  0  0
    1.0809   -0.1950   -0.7763 C   0  0  2  0  0  0  0  0  0  0  0  0
   -0.0041    0.7404   -0.9678 N   0  0  0  0  0  0  0  0  0  0  0  0
    0.1131    2.0693   -1.2983 C   0  0  0  0  0  0  0  0  0  0  0  0
    1.1709    2.6040   -1.6113 O   0  0  0  0  0  0  0  0  0  0  0  0
   -1.1591    2.7866   -1.2085 C   0  0  0  0  0  0  0  0  0  0  0  0
   -1.4250    4.1351   -1.3987 C   0  0  0  0  0  0  0  0  0  0  0  0
   -2.7697    4.3572   -1.1528 N   0  0  0  0  0  0  0  0  0  0  0  0
   -3.3774    3.1808   -0.8015 C   0  0  0  0  0  0  0  0  0  0  0  0
   -4.6645    2.9738   -0.4470 N   0  0  0  0  0  0  0  0  0  0  0  0
   -4.8718    1.6543   -0.1251 C   0  0  0  0  0  0  0  0  0  0  0  0
   -3.9094    0.6399   -0.1751 C   0  0  0  0  0  0  0  0  0  0  0  0
   -2.6592    0.9154   -0.5807 N   0  0  0  0  0  0  0  0  0  0  0  0
   -2.4018    2.2073   -0.8628 C   0  0  0  0  0  0  0  0  0  0  0  0
   -4.1261   -0.8073    0.1857 C   0  0  0  0  0  0  0  0  0  0  0  0
   -4.4451   -1.3263    1.5604 C   0  0  0  0  0  0  0  0  0  0  0  0
   -3.0206   -1.3953    1.0751 C   0  0  0  0  0  0  0  0  0  0  0  0
   -2.3249   -2.6599    0.6852 C   0  0  0  0  0  0  0  0  0  0  0  0
   -0.9561   -2.3848    0.3580 O   0  0  0  0  0  0  0  0  0  0  0  0
   -0.7480   -2.0844   -1.0169 C   0  0  0  0  0  0  0  0  0  0  0  0
    0.6875   -1.6107   -1.2495 C   0  0  0  0  0  0  0  0  0  0  0  0
    1.3458   -2.0929   -2.5377 C   0  0  0  0  0  0  0  0  0  0  0  0
    1.7638   -2.6869   -1.2279 C   0  0  0  0  0  0  0  0  0  0  0  0
    3.8882    0.3521    0.1494 C   0  0  0  0  0  0  0  0  0  0  0  0
    5.8623    1.1158    0.6561 H   0  0  0  0  0  0  0  0  0  0  0  0
    5.1992    0.5434    3.2454 H   0  0  0  0  0  0  0  0  0  0  0  0
    4.4492    1.9114    2.4021 H   0  0  0  0  0  0  0  0  0  0  0  0
    2.4864    0.7271    3.0498 H   0  0  0  0  0  0  0  0  0  0  0  0
    3.2589   -0.8617    2.8316 H   0  0  0  0  0  0  0  0  0  0  0  0
    1.9154    0.1699   -1.3796 H   0  0  0  0  0  0  0  0  0  0  0  0
   -0.8947    0.4537   -0.5664 H   0  0  0  0  0  0  0  0  0  0  0  0
   -0.7719    4.9547   -1.6698 H   0  0  0  0  0  0  0  0  0  0  0  0
   -3.2445    5.2477   -1.1953 H   0  0  0  0  0  0  0  0  0  0  0  0
   -5.8850    1.4252    0.1935 H   0  0  0  0  0  0  0  0  0  0  0  0
   -4.4743   -1.4262   -0.6381 H   0  0  0  0  0  0  0  0  0  0  0  0
   -4.6721   -0.6127    2.3453 H   0  0  0  0  0  0  0  0  0  0  0  0
   -5.0027   -2.2529    1.6393 H   0  0  0  0  0  0  0  0  0  0  0  0
   -2.3295   -0.7273    1.5858 H   0  0  0  0  0  0  0  0  0  0  0  0
   -2.3083   -3.3272    1.5532 H   0  0  0  0  0  0  0  0  0  0  0  0
   -2.8263   -3.1931   -0.1308 H   0  0  0  0  0  0  0  0  0  0  0  0
   -1.4714   -1.3511   -1.3817 H   0  0  0  0  0  0  0  0  0  0  0  0
   -0.9318   -3.0055   -1.5850 H   0  0  0  0  0  0  0  0  0  0  0  0
    0.7754   -2.7168   -3.2179 H   0  0  0  0  0  0  0  0  0  0  0  0
    2.0474   -1.4417   -3.0480 H   0  0  0  0  0  0  0  0  0  0  0  0
    1.4620   -3.7056   -1.0040 H   0  0  0  0  0  0  0  0  0  0  0  0
    2.7481   -2.4467   -0.8449 H   0  0  0  0  0  0  0  0  0  0  0  0
    3.7035    1.3327   -0.3044 H   0  0  0  0  0  0  0  0  0  0  0  0
    3.9316   -0.3994   -0.6441 H   0  0  0  0  0  0  0  0  0  0  0  0
  1  2  3  0
  2  3  1  0
  3  4  1  0
  4  5  1  0
  5  6  1  0
  6  7  1  0
  7  8  2  0
  7  9  1  0
  9 10  1  0
 10 11  1  0
 11 12  2  0
 11 13  1  0
 13 14  2  0
 14 15  1  0
 15 16  1  0
 16 17  2  0
 17 18  1  0
 18 19  2  0
 19 20  1  0
 20 21  2  0
 19 22  1  0
 22 23  1  0
 23 24  1  0
 24 25  1  0
 25 26  1  0
 26 27  1  0
 27 28  1  0
 28 29  1  0
 29 30  1  0
  6 31  1  0
 31  3  1  0
 28  9  1  0
 21 13  1  0
 24 22  1  0
 30 28  1  0
 21 16  1  0
  3 32  1  6
  4 33  1  0
  4 34  1  0
  5 35  1  0
  5 36  1  0
  9 37  1  6
 10 38  1  0
 14 39  1  0
 15 40  1  0
 18 41  1  0
 22 42  1  0
 23 43  1  0
 23 44  1  0
 24 45  1  0
 25 46  1  0
 25 47  1  0
 27 48  1  0
 27 49  1  0
 29 50  1  0
 29 51  1  0
 30 52  1  0
 30 53  1  0
 31 54  1  0
 31 55  1  0
M  END
>  <candidate_id>  (1) 
CAND_c71340cdb2

>  <source_generator>  (1) 
v5_3_model_guided_macrocycle

>  <parent_mol_id>  (1) 
JAK2_69b6c7ad6e

>  <canonical_smiles>  (1) 
N#C[C@@H]1CCN(C(=O)[C@@H]2NC(=O)c3c[nH]c4ncc(nc34)C3CC3COCC23CC3)C1

>  <inchikey>  (1) 
RGFMCTZPJBFCLO-YGFYOVKCSA-N

>  <valid_rdkit>  (1) 
True

>  <unique_flag>  (1) 
True

>  <novel_flag>  (1) 
True

>  <mw>  (1) 
420.473

>  <logp>  (1) 
1.3423

>  <tpsa>  (1) 
124.0

>  <hbd>  (1) 
2

>  <hba>  (1) 
6

>  <rotatable_bonds>  (1) 
1

>  <qed>  (1) 
0.7175

>  <sa_score>  (1) 
4.917

>  <murcko_scaffold>  (1) 
O=C1N[C@@H](C(=O)N2CCCC2)C2(CC2)COCC2CC2c2cnc3[nH]cc1c3n2

>  <max_ring_size>  (1) 
13

>  <has_macrocycle_12_20>  (1) 
True

>  <has_constrained_ring_8_11>  (1) 
False

>  <passes_basic_filters>  (1) 
True

>  <generation_notes>  (1) 
v5_3_model_guided_anchor_pair=24-20;anchor_scores=0.691,0.079;linker_length=3;target_ring=12;linker_prob=0.278;chemotype=oxa

$$$$
