CAND_d6e2fc541d
     RDKit          3D

 58 62  0  0  0  0  0  0  0  0999 V2000
   -4.6507   -1.2837    0.8233 C   0  0  0  0  0  0  0  0  0  0  0  0
   -3.6134   -0.1900    0.4635 C   0  0  0  0  0  0  0  0  0  0  0  0
   -3.6339   -0.0084   -1.0668 C   0  0  0  0  0  0  0  0  0  0  0  0
   -4.1562    1.1114    1.1033 C   0  0  0  0  0  0  0  0  0  0  0  0
   -2.1954   -0.6044    1.0336 C   0  0  1  0  0  0  0  0  0  0  0  0
   -1.2312   -1.1515    0.0725 N   0  0  0  0  0  0  0  0  0  0  0  0
   -1.3635   -2.3774   -0.5400 C   0  0  0  0  0  0  0  0  0  0  0  0
   -2.3489   -3.0948   -0.4202 O   0  0  0  0  0  0  0  0  0  0  0  0
   -0.2454   -2.7571   -1.3898 C   0  0  0  0  0  0  0  0  0  0  0  0
   -0.3072   -3.6889   -2.4199 C   0  0  0  0  0  0  0  0  0  0  0  0
    0.9230   -3.7556   -3.0255 N   0  0  0  0  0  0  0  0  0  0  0  0
    1.7855   -2.9038   -2.3970 C   0  0  0  0  0  0  0  0  0  0  0  0
    3.0744   -2.6972   -2.7258 N   0  0  0  0  0  0  0  0  0  0  0  0
    3.6446   -1.8045   -1.8721 C   0  0  0  0  0  0  0  0  0  0  0  0
    3.0109   -1.1826   -0.7845 C   0  0  0  0  0  0  0  0  0  0  0  0
    1.6979   -1.4170   -0.5152 N   0  0  0  0  0  0  0  0  0  0  0  0
    1.0952   -2.2943   -1.3575 C   0  0  0  0  0  0  0  0  0  0  0  0
    3.7669   -0.2205    0.1355 C   0  0  0  0  0  0  0  0  0  0  0  0
    5.1536   -0.6072    0.6366 C   0  0  0  0  0  0  0  0  0  0  0  0
    3.9914   -0.6665    1.5776 C   0  0  0  0  0  0  0  0  0  0  0  0
    3.4760    1.2542   -0.1060 C   0  0  0  0  0  0  0  0  0  0  0  0
    2.1209    1.5334    0.3596 N   0  0  0  0  0  0  0  0  0  0  0  0
    1.6903    2.9069    0.1097 C   0  0  0  0  0  0  0  0  0  0  0  0
    0.1881    3.1154    0.3904 C   0  0  0  0  0  0  0  0  0  0  0  0
   -0.1961    4.4598   -0.0040 C   0  0  0  0  0  0  0  0  0  0  0  0
   -0.4918    5.5357   -0.3222 N   0  0  0  0  0  0  0  0  0  0  0  0
   -0.3018    2.7417    1.8107 C   0  0  0  0  0  0  0  0  0  0  0  0
   -0.9114    1.5609    1.2177 N   0  0  0  0  0  0  0  0  0  0  0  0
   -0.7726    2.0191   -0.1493 C   0  0  0  0  0  0  0  0  0  0  0  0
   -1.4959    0.5065    1.8615 C   0  0  0  0  0  0  0  0  0  0  0  0
   -1.5361    0.4857    3.0961 O   0  0  0  0  0  0  0  0  0  0  0  0
   -5.6552   -1.0038    0.4838 H   0  0  0  0  0  0  0  0  0  0  0  0
   -4.4191   -2.2451    0.3615 H   0  0  0  0  0  0  0  0  0  0  0  0
   -4.7023   -1.4365    1.9075 H   0  0  0  0  0  0  0  0  0  0  0  0
   -2.8789    0.7038   -1.4048 H   0  0  0  0  0  0  0  0  0  0  0  0
   -4.6076    0.3666   -1.4042 H   0  0  0  0  0  0  0  0  0  0  0  0
   -3.4651   -0.9514   -1.5951 H   0  0  0  0  0  0  0  0  0  0  0  0
   -3.5656    1.9877    0.8244 H   0  0  0  0  0  0  0  0  0  0  0  0
   -5.1832    1.3136    0.7748 H   0  0  0  0  0  0  0  0  0  0  0  0
   -4.1785    1.0409    2.1965 H   0  0  0  0  0  0  0  0  0  0  0  0
   -2.3500   -1.4197    1.7552 H   0  0  0  0  0  0  0  0  0  0  0  0
   -0.3122   -0.7157    0.0100 H   0  0  0  0  0  0  0  0  0  0  0  0
   -1.1345   -4.2918   -2.7734 H   0  0  0  0  0  0  0  0  0  0  0  0
    1.1751   -4.3375   -3.8118 H   0  0  0  0  0  0  0  0  0  0  0  0
    4.6891   -1.5937   -2.0852 H   0  0  0  0  0  0  0  0  0  0  0  0
    5.5915   -1.5535    0.3372 H   0  0  0  0  0  0  0  0  0  0  0  0
    5.8895    0.1745    0.7922 H   0  0  0  0  0  0  0  0  0  0  0  0
    3.9427    0.0725    2.3692 H   0  0  0  0  0  0  0  0  0  0  0  0
    3.6205   -1.6422    1.8756 H   0  0  0  0  0  0  0  0  0  0  0  0
    4.1939    1.8846    0.4322 H   0  0  0  0  0  0  0  0  0  0  0  0
    3.5765    1.4715   -1.1760 H   0  0  0  0  0  0  0  0  0  0  0  0
    2.0504    1.2952    1.3494 H   0  0  0  0  0  0  0  0  0  0  0  0
    2.2859    3.5938    0.7246 H   0  0  0  0  0  0  0  0  0  0  0  0
    1.8880    3.1511   -0.9426 H   0  0  0  0  0  0  0  0  0  0  0  0
   -1.0484    3.4036    2.2634 H   0  0  0  0  0  0  0  0  0  0  0  0
    0.4745    2.5155    2.5472 H   0  0  0  0  0  0  0  0  0  0  0  0
   -1.7124    2.3923   -0.5665 H   0  0  0  0  0  0  0  0  0  0  0  0
   -0.3318    1.2983   -0.8409 H   0  0  0  0  0  0  0  0  0  0  0  0
  1  2  1  0
  2  3  1  0
  2  4  1  0
  2  5  1  0
  5  6  1  0
  6  7  1  0
  7  8  2  0
  7  9  1  0
  9 10  2  0
 10 11  1  0
 11 12  1  0
 12 13  2  0
 13 14  1  0
 14 15  2  0
 15 16  1  0
 16 17  2  0
 15 18  1  0
 18 19  1  0
 19 20  1  0
 18 21  1  0
 21 22  1  0
 22 23  1  0
 23 24  1  0
 24 25  1  0
 25 26  3  0
 24 27  1  0
 27 28  1  0
 28 29  1  0
 28 30  1  0
 30 31  2  0
 30  5  1  0
 17  9  1  0
 20 18  1  0
 29 24  1  0
 17 12  1  0
  1 32  1  0
  1 33  1  0
  1 34  1  0
  3 35  1  0
  3 36  1  0
  3 37  1  0
  4 38  1  0
  4 39  1  0
  4 40  1  0
  5 41  1  1
  6 42  1  0
 10 43  1  0
 11 44  1  0
 14 45  1  0
 19 46  1  0
 19 47  1  0
 20 48  1  0
 20 49  1  0
 21 50  1  0
 21 51  1  0
 22 52  1  0
 23 53  1  0
 23 54  1  0
 27 55  1  0
 27 56  1  0
 29 57  1  0
 29 58  1  0
M  END
>  <candidate_id>  (1) 
CAND_d6e2fc541d

>  <source_generator>  (1) 
v5_3_model_guided_macrocycle

>  <parent_mol_id>  (1) 
JAK2_1a53985c87

>  <canonical_smiles>  (1) 
CC(C)(C)[C@H]1NC(=O)c2c[nH]c3ncc(nc23)C2(CC2)CNCC2(C#N)CN(C2)C1=O

>  <inchikey>  (1) 
PFYDKIOCMNZLOV-INIZCTEOSA-N

>  <valid_rdkit>  (1) 
True

>  <unique_flag>  (1) 
True

>  <novel_flag>  (1) 
True

>  <mw>  (1) 
421.505

>  <logp>  (1) 
1.0894

>  <tpsa>  (1) 
126.8

>  <hbd>  (1) 
3

>  <hba>  (1) 
6

>  <rotatable_bonds>  (1) 
0

>  <qed>  (1) 
0.5844

>  <sa_score>  (1) 
4.047

>  <murcko_scaffold>  (1) 
O=C1NCC(=O)N2CC(CNCC3(CC3)c3cnc4[nH]cc1c4n3)C2

>  <max_ring_size>  (1) 
15

>  <has_macrocycle_12_20>  (1) 
True

>  <has_constrained_ring_8_11>  (1) 
False

>  <passes_basic_filters>  (1) 
True

>  <generation_notes>  (1) 
v5_3_model_guided_anchor_pair=15-24;anchor_scores=0.691,0.691;linker_length=3;target_ring=14;linker_prob=0.291;chemotype=aza

$$$$
