CAND_5c64fa89d0
     RDKit          3D

 71 76  0  0  0  0  0  0  0  0999 V2000
    0.1227   -2.2292    1.7069 C   0  0  0  0  0  0  0  0  0  0  0  0
    0.1316   -2.5183    0.3867 C   0  0  0  0  0  0  0  0  0  0  0  0
   -0.7030   -1.7457   -0.6212 C   0  0  0  0  0  0  0  0  0  0  0  0
   -1.9836   -2.4875   -1.0048 C   0  0  0  0  0  0  0  0  0  0  0  0
   -2.7997   -1.7520   -2.0791 C   0  0  0  0  0  0  0  0  0  0  0  0
   -3.9523   -0.8544   -1.5962 C   0  0  0  0  0  0  0  0  0  0  0  0
   -5.0391   -1.6180   -0.8211 C   0  0  0  0  0  0  0  0  0  0  0  0
   -5.3541   -0.7452    0.3832 C   0  0  0  0  0  0  0  0  0  0  0  0
   -4.8178    0.6189   -0.0030 C   0  0  0  0  0  0  0  0  0  0  0  0
   -3.5873    0.2751   -0.7176 N   0  0  0  0  0  0  0  0  0  0  0  0
   -2.9761    1.4014   -1.4539 C   0  0  0  0  0  0  0  0  0  0  0  0
   -3.0743    2.8239   -0.8445 C   0  0  0  0  0  0  0  0  0  0  0  0
   -2.5217    2.9343    0.4731 O   0  0  0  0  0  0  0  0  0  0  0  0
   -1.1707    3.1598    0.4943 C   0  0  0  0  0  0  0  0  0  0  0  0
   -0.6135    4.2968   -0.0911 C   0  0  0  0  0  0  0  0  0  0  0  0
    0.7666    4.5083   -0.0338 C   0  0  0  0  0  0  0  0  0  0  0  0
    1.6114    3.5944    0.6078 C   0  0  0  0  0  0  0  0  0  0  0  0
    1.0298    2.4724    1.2116 C   0  0  0  0  0  0  0  0  0  0  0  0
   -0.3622    2.2590    1.1976 C   0  0  0  0  0  0  0  0  0  0  0  0
   -0.9916    1.1267    1.9747 C   0  0  0  0  0  0  0  0  0  0  0  0
   -0.0678    0.0600    2.1599 O   0  0  0  0  0  0  0  0  0  0  0  0
   -0.7092   -1.1870    2.3787 C   0  0  0  0  0  0  0  0  0  0  0  0
    2.9919    3.8098    0.5765 N   0  0  0  0  0  0  0  0  0  0  0  0
    4.0665    2.9267    0.5924 C   0  0  0  0  0  0  0  0  0  0  0  0
    5.2771    3.4893    0.7548 N   0  0  0  0  0  0  0  0  0  0  0  0
    6.3472    2.6735    0.7148 C   0  0  0  0  0  0  0  0  0  0  0  0
    6.2637    1.3256    0.4837 C   0  0  0  0  0  0  0  0  0  0  0  0
    4.9881    0.8441    0.3108 C   0  0  0  0  0  0  0  0  0  0  0  0
    3.8897    1.6198    0.3675 N   0  0  0  0  0  0  0  0  0  0  0  0
    4.7426   -0.5449   -0.0610 C   0  0  0  0  0  0  0  0  0  0  0  0
    5.0445   -1.1798   -1.2496 C   0  0  0  0  0  0  0  0  0  0  0  0
    4.5941   -2.5309   -1.2713 C   0  0  0  0  0  0  0  0  0  0  0  0
    3.9615   -2.8934   -0.0974 C   0  0  0  0  0  0  0  0  0  0  0  0
    3.9913   -1.6120    1.0443 S   0  0  0  0  0  0  0  0  0  0  0  0
    3.3160   -4.2108    0.2225 C   0  0  0  0  0  0  0  0  0  0  0  0
    2.0040   -4.0173    0.7470 O   0  0  0  0  0  0  0  0  0  0  0  0
    1.0474   -3.5677   -0.2139 C   0  0  0  0  0  0  0  0  0  0  0  0
    0.7860   -2.7724    2.3761 H   0  0  0  0  0  0  0  0  0  0  0  0
   -0.9562   -0.7534   -0.2410 H   0  0  0  0  0  0  0  0  0  0  0  0
   -0.0963   -1.5582   -1.5164 H   0  0  0  0  0  0  0  0  0  0  0  0
   -1.7052   -3.4683   -1.4118 H   0  0  0  0  0  0  0  0  0  0  0  0
   -2.5836   -2.6850   -0.1107 H   0  0  0  0  0  0  0  0  0  0  0  0
   -3.2474   -2.5179   -2.7275 H   0  0  0  0  0  0  0  0  0  0  0  0
   -2.1301   -1.1732   -2.7274 H   0  0  0  0  0  0  0  0  0  0  0  0
   -4.4445   -0.4611   -2.4985 H   0  0  0  0  0  0  0  0  0  0  0  0
   -5.9334   -1.7218   -1.4478 H   0  0  0  0  0  0  0  0  0  0  0  0
   -4.7484   -2.6237   -0.5047 H   0  0  0  0  0  0  0  0  0  0  0  0
   -4.8246   -1.1263    1.2654 H   0  0  0  0  0  0  0  0  0  0  0  0
   -6.4237   -0.7251    0.6122 H   0  0  0  0  0  0  0  0  0  0  0  0
   -5.5348    1.1362   -0.6529 H   0  0  0  0  0  0  0  0  0  0  0  0
   -4.6331    1.2280    0.8867 H   0  0  0  0  0  0  0  0  0  0  0  0
   -1.9165    1.1599   -1.5963 H   0  0  0  0  0  0  0  0  0  0  0  0
   -3.4209    1.4754   -2.4548 H   0  0  0  0  0  0  0  0  0  0  0  0
   -2.6273    3.5423   -1.5421 H   0  0  0  0  0  0  0  0  0  0  0  0
   -4.1274    3.1175   -0.7670 H   0  0  0  0  0  0  0  0  0  0  0  0
   -1.2419    5.0346   -0.5796 H   0  0  0  0  0  0  0  0  0  0  0  0
    1.1826    5.3904   -0.5134 H   0  0  0  0  0  0  0  0  0  0  0  0
    1.6636    1.7566    1.7336 H   0  0  0  0  0  0  0  0  0  0  0  0
   -1.8719    0.7678    1.4353 H   0  0  0  0  0  0  0  0  0  0  0  0
   -1.3066    1.4915    2.9585 H   0  0  0  0  0  0  0  0  0  0  0  0
   -1.7374   -1.2208    1.9997 H   0  0  0  0  0  0  0  0  0  0  0  0
   -0.7519   -1.3751    3.4566 H   0  0  0  0  0  0  0  0  0  0  0  0
    3.3177    4.7628    0.5587 H   0  0  0  0  0  0  0  0  0  0  0  0
    7.3063    3.1598    0.8657 H   0  0  0  0  0  0  0  0  0  0  0  0
    7.1388    0.6944    0.4307 H   0  0  0  0  0  0  0  0  0  0  0  0
    5.5303   -0.6847   -2.0816 H   0  0  0  0  0  0  0  0  0  0  0  0
    4.7028   -3.1946   -2.1206 H   0  0  0  0  0  0  0  0  0  0  0  0
    3.9070   -4.7281    0.9861 H   0  0  0  0  0  0  0  0  0  0  0  0
    3.2685   -4.8637   -0.6568 H   0  0  0  0  0  0  0  0  0  0  0  0
    0.4574   -4.4345   -0.5300 H   0  0  0  0  0  0  0  0  0  0  0  0
    1.5385   -3.1551   -1.1023 H   0  0  0  0  0  0  0  0  0  0  0  0
  1  2  2  0
  2  3  1  0
  3  4  1  0
  4  5  1  0
  5  6  1  0
  6  7  1  0
  7  8  1  0
  8  9  1  0
  9 10  1  0
 10 11  1  0
 11 12  1  0
 12 13  1  0
 13 14  1  0
 14 15  2  0
 15 16  1  0
 16 17  2  0
 17 18  1  0
 18 19  2  0
 19 20  1  0
 20 21  1  0
 21 22  1  0
 17 23  1  0
 23 24  1  0
 24 25  2  0
 25 26  1  0
 26 27  2  0
 27 28  1  0
 28 29  2  0
 28 30  1  0
 30 31  2  0
 31 32  1  0
 32 33  2  0
 33 34  1  0
 33 35  1  0
 35 36  1  0
 36 37  1  0
 22  1  1  0
 29 24  1  0
 34 30  1  0
 37  2  1  0
 10  6  1  0
 19 14  1  0
  1 38  1  0
  3 39  1  0
  3 40  1  0
  4 41  1  0
  4 42  1  0
  5 43  1  0
  5 44  1  0
  6 45  1  0
  7 46  1  0
  7 47  1  0
  8 48  1  0
  8 49  1  0
  9 50  1  0
  9 51  1  0
 11 52  1  0
 11 53  1  0
 12 54  1  0
 12 55  1  0
 15 56  1  0
 16 57  1  0
 18 58  1  0
 20 59  1  0
 20 60  1  0
 22 61  1  0
 22 62  1  0
 23 63  1  0
 26 64  1  0
 27 65  1  0
 31 66  1  0
 32 67  1  0
 35 68  1  0
 35 69  1  0
 37 70  1  0
 37 71  1  0
M  END
>  <candidate_id>  (1) 
CAND_5c64fa89d0

>  <source_generator>  (1) 
v5_3_model_guided_macrocycle

>  <parent_mol_id>  (1) 
JAK2_522c241c10

>  <canonical_smiles>  (1) 
C1=C2\CCCC3CCCN3CCOc3ccc(cc3COC/1)Nc1nccc(n1)-c1ccc(s1)COC2

>  <inchikey>  (1) 
OVLUYPLPKOKAMI-SRZZPIQSSA-N

>  <valid_rdkit>  (1) 
True

>  <unique_flag>  (1) 
True

>  <novel_flag>  (1) 
True

>  <mw>  (1) 
518.683

>  <logp>  (1) 
5.949

>  <tpsa>  (1) 
68.74

>  <hbd>  (1) 
1

>  <hba>  (1) 
8

>  <rotatable_bonds>  (1) 
0

>  <qed>  (1) 
0.369

>  <sa_score>  (1) 
5.062

>  <murcko_scaffold>  (1) 
C1=C2\CCCC3CCCN3CCOc3ccc(cc3COC/1)Nc1nccc(n1)-c1ccc(s1)COC2

>  <max_ring_size>  (1) 
18

>  <has_macrocycle_12_20>  (1) 
True

>  <has_constrained_ring_8_11>  (1) 
False

>  <passes_basic_filters>  (1) 
True

>  <generation_notes>  (1) 
v5_3_model_guided_anchor_pair=0-15;anchor_scores=0.312,0.079;linker_length=3;target_ring=14;linker_prob=0.414;chemotype=alkyl

$$$$
