CAND_09deb650c1
     RDKit          3D

 62 67  0  0  0  0  0  0  0  0999 V2000
   -2.5358   -0.7728   -0.8859 O   0  0  0  0  0  0  0  0  0  0  0  0
   -3.5808   -0.6082   -0.2719 C   0  0  0  0  0  0  0  0  0  0  0  0
   -4.4695   -1.6087    0.0202 N   0  0  0  0  0  0  0  0  0  0  0  0
   -4.2596   -2.9662   -0.2133 C   0  0  0  0  0  0  0  0  0  0  0  0
   -5.3411   -3.8177   -0.3107 C   0  0  0  0  0  0  0  0  0  0  0  0
   -4.8438   -5.0381   -0.6489 N   0  0  0  0  0  0  0  0  0  0  0  0
   -3.5151   -5.0702   -0.7298 N   0  0  0  0  0  0  0  0  0  0  0  0
   -3.1197   -3.8253   -0.4094 C   0  0  0  0  0  0  0  0  0  0  0  0
   -1.5648   -3.5484   -0.2424 C   0  0  0  0  0  0  0  0  0  0  0  0
   -0.5929   -4.3849   -0.5766 N   0  0  0  0  0  0  0  0  0  0  0  0
    0.5782   -3.6842   -0.3943 C   0  0  0  0  0  0  0  0  0  0  0  0
    1.9018   -4.0182   -0.7069 C   0  0  0  0  0  0  0  0  0  0  0  0
    2.9083   -3.0623   -0.4744 C   0  0  0  0  0  0  0  0  0  0  0  0
    2.6251   -1.8013    0.0907 C   0  0  0  0  0  0  0  0  0  0  0  0
    1.3099   -1.5039    0.4717 C   0  0  0  0  0  0  0  0  0  0  0  0
    0.3278   -2.4481    0.1756 C   0  0  0  0  0  0  0  0  0  0  0  0
   -1.0308   -2.4115    0.2992 N   0  0  0  0  0  0  0  0  0  0  0  0
    3.7708   -0.8219    0.3014 C   0  0  0  0  0  0  0  0  0  0  0  0
    3.3904    0.5639    0.6801 N   0  0  0  0  0  0  0  0  0  0  0  0
    4.5730    1.2576    1.2335 C   0  0  0  0  0  0  0  0  0  0  0  0
    5.7105    1.4728    0.2142 C   0  0  0  0  0  0  0  0  0  0  0  0
    5.2477    1.6226   -1.1354 O   0  0  0  0  0  0  0  0  0  0  0  0
    3.9566    2.2319   -1.1772 C   0  0  0  0  0  0  0  0  0  0  0  0
    2.8763    1.3479   -0.4888 C   0  0  0  0  0  0  0  0  0  0  0  0
    1.6968    2.2290    0.0036 C   0  0  0  0  0  0  0  0  0  0  0  0
    0.9794    2.9838   -1.1193 C   0  0  0  0  0  0  0  0  0  0  0  0
   -0.3124    4.0711   -0.4051 S   0  0  0  0  0  0  0  0  0  0  0  0
   -1.8002    3.4676   -1.2828 C   0  0  0  0  0  0  0  0  0  0  0  0
   -2.2365    2.0377   -0.9643 C   0  0  0  0  0  0  0  0  0  0  0  0
   -3.0285    1.7526    0.3230 C   0  0  0  0  0  0  0  0  0  0  0  0
   -3.3879    2.8737    1.2862 C   0  0  0  0  0  0  0  0  0  0  0  0
   -2.3039    1.9084    1.6507 C   0  0  0  0  0  0  0  0  0  0  0  0
   -3.9430    0.6158    0.2497 N   0  0  0  0  0  0  0  0  0  0  0  0
   -5.4139   -1.3374    0.2480 H   0  0  0  0  0  0  0  0  0  0  0  0
   -6.4061   -3.6601   -0.2258 H   0  0  0  0  0  0  0  0  0  0  0  0
   -5.3518   -5.8957   -0.8403 H   0  0  0  0  0  0  0  0  0  0  0  0
    2.1291   -4.9795   -1.1529 H   0  0  0  0  0  0  0  0  0  0  0  0
    3.9311   -3.3142   -0.7494 H   0  0  0  0  0  0  0  0  0  0  0  0
    1.0504   -0.5661    0.9457 H   0  0  0  0  0  0  0  0  0  0  0  0
   -1.5605   -1.5931    0.5469 H   0  0  0  0  0  0  0  0  0  0  0  0
    4.3699   -1.2549    1.1142 H   0  0  0  0  0  0  0  0  0  0  0  0
    4.3964   -0.8200   -0.6002 H   0  0  0  0  0  0  0  0  0  0  0  0
    4.2481    2.2370    1.6090 H   0  0  0  0  0  0  0  0  0  0  0  0
    4.9579    0.7367    2.1191 H   0  0  0  0  0  0  0  0  0  0  0  0
    6.2919    2.3620    0.4813 H   0  0  0  0  0  0  0  0  0  0  0  0
    6.3938    0.6171    0.2214 H   0  0  0  0  0  0  0  0  0  0  0  0
    4.0275    3.2265   -0.7189 H   0  0  0  0  0  0  0  0  0  0  0  0
    3.6973    2.3754   -2.2315 H   0  0  0  0  0  0  0  0  0  0  0  0
    2.4776    0.6575   -1.2432 H   0  0  0  0  0  0  0  0  0  0  0  0
    2.0720    2.9463    0.7463 H   0  0  0  0  0  0  0  0  0  0  0  0
    0.9647    1.5991    0.5220 H   0  0  0  0  0  0  0  0  0  0  0  0
    0.5544    2.2858   -1.8461 H   0  0  0  0  0  0  0  0  0  0  0  0
    1.6748    3.6359   -1.6554 H   0  0  0  0  0  0  0  0  0  0  0  0
   -1.5761    3.5418   -2.3532 H   0  0  0  0  0  0  0  0  0  0  0  0
   -2.6169    4.1713   -1.0948 H   0  0  0  0  0  0  0  0  0  0  0  0
   -2.8846    1.7387   -1.8000 H   0  0  0  0  0  0  0  0  0  0  0  0
   -1.3693    1.3692   -0.9987 H   0  0  0  0  0  0  0  0  0  0  0  0
   -3.0913    3.8961    1.0874 H   0  0  0  0  0  0  0  0  0  0  0  0
   -4.3205    2.8126    1.8363 H   0  0  0  0  0  0  0  0  0  0  0  0
   -2.5060    1.1922    2.4400 H   0  0  0  0  0  0  0  0  0  0  0  0
   -1.2804    2.2611    1.6599 H   0  0  0  0  0  0  0  0  0  0  0  0
   -4.8454    0.7142    0.6912 H   0  0  0  0  0  0  0  0  0  0  0  0
  1  2  2  0
  2  3  1  0
  3  4  1  0
  4  5  2  0
  5  6  1  0
  6  7  1  0
  7  8  2  0
  8  9  1  0
  9 10  2  0
 10 11  1  0
 11 12  2  0
 12 13  1  0
 13 14  2  0
 14 15  1  0
 15 16  2  0
 16 17  1  0
 14 18  1  0
 18 19  1  0
 19 20  1  0
 20 21  1  0
 21 22  1  0
 22 23  1  0
 23 24  1  0
 24 25  1  0
 25 26  1  0
 26 27  1  0
 27 28  1  0
 28 29  1  0
 29 30  1  0
 30 31  1  0
 31 32  1  0
 30 33  1  0
 33  2  1  0
  8  4  1  0
 17  9  1  0
 24 19  1  0
 32 30  1  0
 16 11  1  0
  3 34  1  0
  5 35  1  0
  6 36  1  0
 12 37  1  0
 13 38  1  0
 15 39  1  0
 17 40  1  0
 18 41  1  0
 18 42  1  0
 20 43  1  0
 20 44  1  0
 21 45  1  0
 21 46  1  0
 23 47  1  0
 23 48  1  0
 24 49  1  0
 25 50  1  0
 25 51  1  0
 26 52  1  0
 26 53  1  0
 28 54  1  0
 28 55  1  0
 29 56  1  0
 29 57  1  0
 31 58  1  0
 31 59  1  0
 32 60  1  0
 32 61  1  0
 33 62  1  0
M  END
>  <candidate_id>  (1) 
CAND_09deb650c1

>  <source_generator>  (1) 
v5_3_model_guided_macrocycle

>  <parent_mol_id>  (1) 
JAK2_dbe7510318

>  <canonical_smiles>  (1) 
O=C1Nc2c[nH]nc2-c2nc3ccc(cc3[nH]2)CN2CCOCC2CCSCCC2(CC2)N1

>  <inchikey>  (1) 
DDGKEEUOWIFBMV-UHFFFAOYSA-N

>  <valid_rdkit>  (1) 
True

>  <unique_flag>  (1) 
True

>  <novel_flag>  (1) 
True

>  <mw>  (1) 
467.599

>  <logp>  (1) 
3.3349

>  <tpsa>  (1) 
110.96

>  <hbd>  (1) 
4

>  <hba>  (1) 
6

>  <rotatable_bonds>  (1) 
0

>  <qed>  (1) 
0.4036

>  <sa_score>  (1) 
4.303

>  <murcko_scaffold>  (1) 
O=C1Nc2c[nH]nc2-c2nc3ccc(cc3[nH]2)CN2CCOCC2CCSCCC2(CC2)N1

>  <max_ring_size>  (1) 
19

>  <has_macrocycle_12_20>  (1) 
True

>  <has_constrained_ring_8_11>  (1) 
False

>  <passes_basic_filters>  (1) 
True

>  <generation_notes>  (1) 
v5_3_model_guided_anchor_pair=25-16;anchor_scores=0.691,0.079;linker_length=5;target_ring=18;linker_prob=0.200;chemotype=thioether

$$$$
