CAND_2aa8e00931
     RDKit          3D

 70 75  0  0  0  0  0  0  0  0999 V2000
    0.3671    3.6508    0.6219 C   0  0  0  0  0  0  0  0  0  0  0  0
   -0.4425    2.6113    0.3244 C   0  0  0  0  0  0  0  0  0  0  0  0
   -1.0907    2.3802   -1.0220 C   0  0  0  0  0  0  0  0  0  0  0  0
   -2.5210    2.7010   -1.0044 N   0  0  0  0  0  0  0  0  0  0  0  0
   -3.3086    1.7478   -1.7954 C   0  0  0  0  0  0  0  0  0  0  0  0
   -3.5626    0.4244   -1.0665 C   0  0  0  0  0  0  0  0  0  0  0  0
   -4.4765    0.5275    0.1466 C   0  0  0  0  0  0  0  0  0  0  0  0
   -4.8983   -0.9173    0.3696 C   0  0  0  0  0  0  0  0  0  0  0  0
   -4.8956   -1.5394   -0.9591 N   0  0  0  0  0  0  0  0  0  0  0  0
   -4.3327   -2.8981   -0.9815 C   0  0  0  0  0  0  0  0  0  0  0  0
   -2.8061   -3.0936   -0.8292 C   0  0  0  0  0  0  0  0  0  0  0  0
   -2.4018   -3.0029    0.5476 O   0  0  0  0  0  0  0  0  0  0  0  0
   -1.0411   -3.1421    0.6719 C   0  0  0  0  0  0  0  0  0  0  0  0
   -0.4235   -4.3553    0.3567 C   0  0  0  0  0  0  0  0  0  0  0  0
    0.9649   -4.4918    0.4650 C   0  0  0  0  0  0  0  0  0  0  0  0
    1.7638   -3.4278    0.8986 C   0  0  0  0  0  0  0  0  0  0  0  0
    1.1195   -2.2348    1.2453 C   0  0  0  0  0  0  0  0  0  0  0  0
   -0.2795   -2.0819    1.1681 C   0  0  0  0  0  0  0  0  0  0  0  0
   -0.8810   -0.7875    1.6411 C   0  0  0  0  0  0  0  0  0  0  0  0
   -0.3898    0.2755    0.8281 O   0  0  0  0  0  0  0  0  0  0  0  0
   -0.7204    1.5500    1.3660 C   0  0  0  0  0  0  0  0  0  0  0  0
    3.1545   -3.5760    0.9119 N   0  0  0  0  0  0  0  0  0  0  0  0
    4.1880   -2.6429    0.9008 C   0  0  0  0  0  0  0  0  0  0  0  0
    5.4258   -3.1349    1.0673 N   0  0  0  0  0  0  0  0  0  0  0  0
    6.4443   -2.2550    1.0363 C   0  0  0  0  0  0  0  0  0  0  0  0
    6.2818   -0.9083    0.8295 C   0  0  0  0  0  0  0  0  0  0  0  0
    4.9836   -0.4945    0.6442 C   0  0  0  0  0  0  0  0  0  0  0  0
    3.9422   -1.3454    0.6904 N   0  0  0  0  0  0  0  0  0  0  0  0
    4.6426    0.9097    0.3821 C   0  0  0  0  0  0  0  0  0  0  0  0
    5.2291    2.0633    0.8723 C   0  0  0  0  0  0  0  0  0  0  0  0
    4.6233    3.2495    0.3617 C   0  0  0  0  0  0  0  0  0  0  0  0
    3.5921    2.9785   -0.5145 C   0  0  0  0  0  0  0  0  0  0  0  0
    3.3604    1.2943   -0.6973 S   0  0  0  0  0  0  0  0  0  0  0  0
    2.7373    3.9401   -1.2793 C   0  0  0  0  0  0  0  0  0  0  0  0
    2.1842    4.8701   -0.3463 O   0  0  0  0  0  0  0  0  0  0  0  0
    0.7628    4.7987   -0.2541 C   0  0  0  0  0  0  0  0  0  0  0  0
   -4.3010   -0.6005   -1.9183 C   0  0  0  0  0  0  0  0  0  0  0  0
    0.8065    3.7012    1.6174 H   0  0  0  0  0  0  0  0  0  0  0  0
   -0.8969    1.3461   -1.3308 H   0  0  0  0  0  0  0  0  0  0  0  0
   -0.6237    2.9874   -1.8029 H   0  0  0  0  0  0  0  0  0  0  0  0
   -2.8675    2.7205   -0.0491 H   0  0  0  0  0  0  0  0  0  0  0  0
   -2.8252    1.5686   -2.7639 H   0  0  0  0  0  0  0  0  0  0  0  0
   -4.2698    2.2241   -2.0233 H   0  0  0  0  0  0  0  0  0  0  0  0
   -2.6086   -0.0173   -0.7561 H   0  0  0  0  0  0  0  0  0  0  0  0
   -5.3533    1.1483   -0.0759 H   0  0  0  0  0  0  0  0  0  0  0  0
   -3.9755    0.9447    1.0240 H   0  0  0  0  0  0  0  0  0  0  0  0
   -4.2006   -1.3953    1.0624 H   0  0  0  0  0  0  0  0  0  0  0  0
   -5.8942   -0.9716    0.8211 H   0  0  0  0  0  0  0  0  0  0  0  0
   -4.6183   -3.3321   -1.9486 H   0  0  0  0  0  0  0  0  0  0  0  0
   -4.8475   -3.4996   -0.2214 H   0  0  0  0  0  0  0  0  0  0  0  0
   -2.5800   -4.0976   -1.2091 H   0  0  0  0  0  0  0  0  0  0  0  0
   -2.2487   -2.3720   -1.4373 H   0  0  0  0  0  0  0  0  0  0  0  0
   -1.0131   -5.2050    0.0257 H   0  0  0  0  0  0  0  0  0  0  0  0
    1.4203   -5.4385    0.1857 H   0  0  0  0  0  0  0  0  0  0  0  0
    1.7022   -1.3875    1.6020 H   0  0  0  0  0  0  0  0  0  0  0  0
   -0.5953   -0.6286    2.6888 H   0  0  0  0  0  0  0  0  0  0  0  0
   -1.9727   -0.8016    1.5921 H   0  0  0  0  0  0  0  0  0  0  0  0
   -0.1287    1.7098    2.2749 H   0  0  0  0  0  0  0  0  0  0  0  0
   -1.7794    1.5833    1.6440 H   0  0  0  0  0  0  0  0  0  0  0  0
    3.5289   -4.5110    0.9419 H   0  0  0  0  0  0  0  0  0  0  0  0
    7.4311   -2.6851    1.1815 H   0  0  0  0  0  0  0  0  0  0  0  0
    7.1249   -0.2338    0.7931 H   0  0  0  0  0  0  0  0  0  0  0  0
    6.0504    2.0650    1.5781 H   0  0  0  0  0  0  0  0  0  0  0  0
    4.9239    4.2572    0.6237 H   0  0  0  0  0  0  0  0  0  0  0  0
    1.9680    3.4402   -1.8793 H   0  0  0  0  0  0  0  0  0  0  0  0
    3.3721    4.5075   -1.9691 H   0  0  0  0  0  0  0  0  0  0  0  0
    0.4321    5.7220    0.2345 H   0  0  0  0  0  0  0  0  0  0  0  0
    0.3112    4.7987   -1.2498 H   0  0  0  0  0  0  0  0  0  0  0  0
   -5.1176   -0.1202   -2.4719 H   0  0  0  0  0  0  0  0  0  0  0  0
   -3.6496   -1.0702   -2.6629 H   0  0  0  0  0  0  0  0  0  0  0  0
  1  2  2  0
  2  3  1  0
  3  4  1  0
  4  5  1  0
  5  6  1  0
  6  7  1  0
  7  8  1  0
  8  9  1  0
  9 10  1  0
 10 11  1  0
 11 12  1  0
 12 13  1  0
 13 14  2  0
 14 15  1  0
 15 16  2  0
 16 17  1  0
 17 18  2  0
 18 19  1  0
 19 20  1  0
 20 21  1  0
 16 22  1  0
 22 23  1  0
 23 24  1  0
 24 25  2  0
 25 26  1  0
 26 27  2  0
 27 28  1  0
 27 29  1  0
 29 30  2  0
 30 31  1  0
 31 32  2  0
 32 33  1  0
 32 34  1  0
 34 35  1  0
 35 36  1  0
  9 37  1  0
 36  1  1  0
 21  2  1  0
 28 23  2  0
 33 29  1  0
 37  6  1  0
 18 13  1  0
  1 38  1  0
  3 39  1  0
  3 40  1  0
  4 41  1  0
  5 42  1  0
  5 43  1  0
  6 44  1  0
  7 45  1  0
  7 46  1  0
  8 47  1  0
  8 48  1  0
 10 49  1  0
 10 50  1  0
 11 51  1  0
 11 52  1  0
 14 53  1  0
 15 54  1  0
 17 55  1  0
 19 56  1  0
 19 57  1  0
 21 58  1  0
 21 59  1  0
 22 60  1  0
 25 61  1  0
 26 62  1  0
 30 63  1  0
 31 64  1  0
 34 65  1  0
 34 66  1  0
 36 67  1  0
 36 68  1  0
 37 69  1  0
 37 70  1  0
M  END
>  <candidate_id>  (1) 
CAND_2aa8e00931

>  <source_generator>  (1) 
v5_3_model_guided_macrocycle

>  <parent_mol_id>  (1) 
JAK2_522c241c10

>  <canonical_smiles>  (1) 
C1=C2\CNCC3CCN(CCOc4ccc(cc4COC2)Nc2nccc(n2)-c2ccc(s2)COC/1)C3

>  <inchikey>  (1) 
QEQULLILODNDDM-QPSGOUHRSA-N

>  <valid_rdkit>  (1) 
True

>  <unique_flag>  (1) 
True

>  <novel_flag>  (1) 
True

>  <mw>  (1) 
519.671

>  <logp>  (1) 
4.2258

>  <tpsa>  (1) 
80.77

>  <hbd>  (1) 
2

>  <hba>  (1) 
9

>  <rotatable_bonds>  (1) 
0

>  <qed>  (1) 
0.4275

>  <sa_score>  (1) 
4.843

>  <murcko_scaffold>  (1) 
C1=C2\CNCC3CCN(CCOc4ccc(cc4COC2)Nc2nccc(n2)-c2ccc(s2)COC/1)C3

>  <max_ring_size>  (1) 
18

>  <has_macrocycle_12_20>  (1) 
True

>  <has_constrained_ring_8_11>  (1) 
False

>  <passes_basic_filters>  (1) 
True

>  <generation_notes>  (1) 
v5_3_model_guided_anchor_pair=1-16;anchor_scores=0.312,0.079;linker_length=3;target_ring=14;linker_prob=0.414;chemotype=aza

$$$$
