CAND_3fc0103e7e
     RDKit          3D

 76 81  0  0  0  0  0  0  0  0999 V2000
    7.2176   -0.0828   -1.2868 C   0  0  0  0  0  0  0  0  0  0  0  0
    5.9492   -0.8339   -1.5218 C   0  0  0  0  0  0  0  0  0  0  0  0
    5.9019   -1.8901   -2.4068 C   0  0  0  0  0  0  0  0  0  0  0  0
    4.7914   -2.5980   -2.6851 N   0  0  0  0  0  0  0  0  0  0  0  0
    3.6663   -2.2482   -2.0444 C   0  0  0  0  0  0  0  0  0  0  0  0
    3.6141   -1.2420   -1.1665 N   0  0  0  0  0  0  0  0  0  0  0  0
    4.7461   -0.5516   -0.8973 C   0  0  0  0  0  0  0  0  0  0  0  0
    4.5588    0.5296    0.0833 C   0  0  0  0  0  0  0  0  0  0  0  0
    5.2561    0.5576    1.3012 C   0  0  0  0  0  0  0  0  0  0  0  0
    5.0260    1.5700    2.2367 C   0  0  0  0  0  0  0  0  0  0  0  0
    4.0840    2.5645    1.9758 C   0  0  0  0  0  0  0  0  0  0  0  0
    3.3730    2.5653    0.7715 C   0  0  0  0  0  0  0  0  0  0  0  0
    3.6214    1.5474   -0.1642 C   0  0  0  0  0  0  0  0  0  0  0  0
    2.3037    3.5978    0.5098 C   0  0  0  0  0  0  0  0  0  0  0  0
    1.1109    3.3255    1.2468 O   0  0  0  0  0  0  0  0  0  0  0  0
    0.3621    2.2495    0.6749 C   0  0  0  0  0  0  0  0  0  0  0  0
   -0.8934    2.0595    1.4854 C   0  0  0  0  0  0  0  0  0  0  0  0
   -1.0847    1.0267    2.3381 C   0  0  0  0  0  0  0  0  0  0  0  0
   -0.1403   -0.1092    2.6122 C   0  0  0  0  0  0  0  0  0  0  0  0
    0.1646   -0.8425    1.4286 O   0  0  0  0  0  0  0  0  0  0  0  0
   -0.9046   -1.6782    0.9732 C   0  0  0  0  0  0  0  0  0  0  0  0
   -0.5851   -2.3857   -0.3312 C   0  0  0  0  0  0  0  0  0  0  0  0
    0.7675   -2.3539   -0.7804 C   0  0  0  0  0  0  0  0  0  0  0  0
    1.2213   -3.0266   -1.9214 C   0  0  0  0  0  0  0  0  0  0  0  0
    0.2773   -3.7498   -2.6476 C   0  0  0  0  0  0  0  0  0  0  0  0
   -1.0569   -3.7944   -2.2396 C   0  0  0  0  0  0  0  0  0  0  0  0
   -1.5120   -3.1193   -1.0935 C   0  0  0  0  0  0  0  0  0  0  0  0
   -2.8524   -3.3352   -0.9343 O   0  0  0  0  0  0  0  0  0  0  0  0
   -3.6645   -2.6202   -0.0126 C   0  0  0  0  0  0  0  0  0  0  0  0
   -4.0327   -1.2181   -0.5401 C   0  0  0  0  0  0  0  0  0  0  0  0
   -4.4298   -0.3418    0.5730 N   0  0  0  0  0  0  0  0  0  0  0  0
   -5.8366   -0.5297    0.9563 C   0  0  0  0  0  0  0  0  0  0  0  0
   -6.6346    0.4560    0.1143 C   0  0  0  0  0  0  0  0  0  0  0  0
   -5.6288    1.5030   -0.3508 C   0  0  0  0  0  0  0  0  0  0  0  0
   -4.3113    1.1131    0.3213 C   0  0  0  0  0  0  0  0  0  0  0  0
   -3.0638    1.6257   -0.4462 C   0  0  0  0  0  0  0  0  0  0  0  0
   -2.6058    2.9804   -0.0961 N   0  0  0  0  0  0  0  0  0  0  0  0
   -1.9910    3.0702    1.2384 C   0  0  0  0  0  0  0  0  0  0  0  0
    2.5400   -2.9916   -2.3844 N   0  0  0  0  0  0  0  0  0  0  0  0
    7.9562   -0.3002   -2.0663 H   0  0  0  0  0  0  0  0  0  0  0  0
    7.6573   -0.3602   -0.3235 H   0  0  0  0  0  0  0  0  0  0  0  0
    7.0423    0.9980   -1.3102 H   0  0  0  0  0  0  0  0  0  0  0  0
    6.7863   -2.2109   -2.9517 H   0  0  0  0  0  0  0  0  0  0  0  0
    5.9643   -0.2311    1.5448 H   0  0  0  0  0  0  0  0  0  0  0  0
    5.5647    1.5692    3.1817 H   0  0  0  0  0  0  0  0  0  0  0  0
    3.8866    3.3287    2.7254 H   0  0  0  0  0  0  0  0  0  0  0  0
    3.0483    1.5182   -1.0907 H   0  0  0  0  0  0  0  0  0  0  0  0
    2.0827    3.6928   -0.5608 H   0  0  0  0  0  0  0  0  0  0  0  0
    2.6730    4.5774    0.8340 H   0  0  0  0  0  0  0  0  0  0  0  0
    0.1119    2.4815   -0.3670 H   0  0  0  0  0  0  0  0  0  0  0  0
    0.9709    1.3444    0.6698 H   0  0  0  0  0  0  0  0  0  0  0  0
   -2.0311    0.9574    2.8707 H   0  0  0  0  0  0  0  0  0  0  0  0
    0.7982    0.2858    3.0174 H   0  0  0  0  0  0  0  0  0  0  0  0
   -0.5564   -0.7821    3.3708 H   0  0  0  0  0  0  0  0  0  0  0  0
   -1.7680   -1.0369    0.8274 H   0  0  0  0  0  0  0  0  0  0  0  0
   -1.1073   -2.4316    1.7421 H   0  0  0  0  0  0  0  0  0  0  0  0
    1.4922   -1.7963   -0.1900 H   0  0  0  0  0  0  0  0  0  0  0  0
    0.5652   -4.2884   -3.5467 H   0  0  0  0  0  0  0  0  0  0  0  0
   -1.7643   -4.3713   -2.8339 H   0  0  0  0  0  0  0  0  0  0  0  0
   -4.5900   -3.1993    0.0962 H   0  0  0  0  0  0  0  0  0  0  0  0
   -3.2214   -2.6206    0.9859 H   0  0  0  0  0  0  0  0  0  0  0  0
   -4.8130   -1.2965   -1.3083 H   0  0  0  0  0  0  0  0  0  0  0  0
   -3.1603   -0.8265   -1.0694 H   0  0  0  0  0  0  0  0  0  0  0  0
   -5.9434   -0.2722    2.0177 H   0  0  0  0  0  0  0  0  0  0  0  0
   -6.1969   -1.5583    0.8473 H   0  0  0  0  0  0  0  0  0  0  0  0
   -7.4470    0.9075    0.6935 H   0  0  0  0  0  0  0  0  0  0  0  0
   -7.0791   -0.0438   -0.7549 H   0  0  0  0  0  0  0  0  0  0  0  0
   -5.9416    2.5135   -0.0663 H   0  0  0  0  0  0  0  0  0  0  0  0
   -5.5550    1.4707   -1.4445 H   0  0  0  0  0  0  0  0  0  0  0  0
   -4.3064    1.5672    1.3207 H   0  0  0  0  0  0  0  0  0  0  0  0
   -2.2257    0.9325   -0.3389 H   0  0  0  0  0  0  0  0  0  0  0  0
   -3.2790    1.6259   -1.5221 H   0  0  0  0  0  0  0  0  0  0  0  0
   -3.3870    3.6315   -0.1400 H   0  0  0  0  0  0  0  0  0  0  0  0
   -1.5724    4.0776    1.3521 H   0  0  0  0  0  0  0  0  0  0  0  0
   -2.7693    2.9955    2.0073 H   0  0  0  0  0  0  0  0  0  0  0  0
    2.7897   -3.6481   -3.1090 H   0  0  0  0  0  0  0  0  0  0  0  0
  1  2  1  0
  2  3  2  0
  3  4  1  0
  4  5  2  0
  5  6  1  0
  6  7  2  0
  7  8  1  0
  8  9  2  0
  9 10  1  0
 10 11  2  0
 11 12  1  0
 12 13  2  0
 12 14  1  0
 14 15  1  0
 15 16  1  0
 16 17  1  0
 17 18  2  3
 18 19  1  0
 19 20  1  0
 20 21  1  0
 21 22  1  0
 22 23  2  0
 23 24  1  0
 24 25  2  0
 25 26  1  0
 26 27  2  0
 27 28  1  0
 28 29  1  0
 29 30  1  0
 30 31  1  0
 31 32  1  0
 32 33  1  0
 33 34  1  0
 34 35  1  0
 35 36  1  0
 36 37  1  0
 37 38  1  0
 24 39  1  0
  7  2  1  0
 13  8  1  0
 38 17  1  0
 39  5  1  0
 27 22  1  0
 35 31  1  0
  1 40  1  0
  1 41  1  0
  1 42  1  0
  3 43  1  0
  9 44  1  0
 10 45  1  0
 11 46  1  0
 13 47  1  0
 14 48  1  0
 14 49  1  0
 16 50  1  0
 16 51  1  0
 18 52  1  0
 19 53  1  0
 19 54  1  0
 21 55  1  0
 21 56  1  0
 23 57  1  0
 25 58  1  0
 26 59  1  0
 29 60  1  0
 29 61  1  0
 30 62  1  0
 30 63  1  0
 32 64  1  0
 32 65  1  0
 33 66  1  0
 33 67  1  0
 34 68  1  0
 34 69  1  0
 35 70  1  0
 36 71  1  0
 36 72  1  0
 37 73  1  0
 38 74  1  0
 38 75  1  0
 39 76  1  0
M  END
>  <candidate_id>  (1) 
CAND_3fc0103e7e

>  <source_generator>  (1) 
v5_3_model_guided_macrocycle

>  <parent_mol_id>  (1) 
JAK2_5e05d7987e

>  <canonical_smiles>  (1) 
Cc1cnc2nc1-c1cccc(c1)COCC1=CCOCc3cc(ccc3OCCN3CCCC3CNC1)N2

>  <inchikey>  (1) 
YAKNIGUUIGBJGU-UHFFFAOYSA-N

>  <valid_rdkit>  (1) 
True

>  <unique_flag>  (1) 
True

>  <novel_flag>  (1) 
True

>  <mw>  (1) 
527.669

>  <logp>  (1) 
4.6152

>  <tpsa>  (1) 
80.77

>  <hbd>  (1) 
2

>  <hba>  (1) 
8

>  <rotatable_bonds>  (1) 
0

>  <qed>  (1) 
0.4104

>  <sa_score>  (1) 
4.637

>  <murcko_scaffold>  (1) 
C1=C2CNCC3CCCN3CCOc3ccc(cc3COC1)Nc1nccc(n1)-c1cccc(c1)COC2

>  <max_ring_size>  (1) 
18

>  <has_macrocycle_12_20>  (1) 
True

>  <has_constrained_ring_8_11>  (1) 
False

>  <passes_basic_filters>  (1) 
True

>  <generation_notes>  (1) 
v5_3_model_guided_anchor_pair=16-31;anchor_scores=0.312,0.079;linker_length=3;target_ring=14;linker_prob=0.523;chemotype=aza

$$$$
