CAND_010738c49b
     RDKit          3D

 56 61  0  0  0  0  0  0  0  0999 V2000
   -0.0384    2.9192   -3.4028 N   0  0  0  0  0  0  0  0  0  0  0  0
   -0.4975    3.1224   -2.3568 C   0  0  0  0  0  0  0  0  0  0  0  0
   -1.0811    3.3797   -1.0305 C   0  0  2  0  0  0  0  0  0  0  0  0
   -0.0161    3.3583    0.0671 C   0  0  0  0  0  0  0  0  0  0  0  0
    0.0934    1.8676    0.4001 C   0  0  0  0  0  0  0  0  0  0  0  0
    0.8695    1.5688    1.6956 C   0  0  0  0  0  0  0  0  0  0  0  0
    2.2902    1.9593    1.6054 N   0  0  0  0  0  0  0  0  0  0  0  0
    3.1792    0.8231    1.3094 C   0  0  0  0  0  0  0  0  0  0  0  0
    3.1735    0.3340   -0.1361 C   0  0  0  0  0  0  0  0  0  0  0  0
    4.3487    0.7825   -1.0168 C   0  0  0  0  0  0  0  0  0  0  0  0
    2.9909    1.3305   -1.2810 C   0  0  0  0  0  0  0  0  0  0  0  0
    2.6287   -1.0927   -0.3088 C   0  0  0  0  0  0  0  0  0  0  0  0
    3.4828   -2.1610   -0.6334 C   0  0  0  0  0  0  0  0  0  0  0  0
    3.1254   -3.4661   -0.7527 N   0  0  0  0  0  0  0  0  0  0  0  0
    1.8208   -3.6237   -0.4697 C   0  0  0  0  0  0  0  0  0  0  0  0
    1.1564   -4.8153   -0.4383 N   0  0  0  0  0  0  0  0  0  0  0  0
   -0.1324   -4.6072   -0.0211 C   0  0  0  0  0  0  0  0  0  0  0  0
   -0.3194   -3.2445    0.1814 C   0  0  0  0  0  0  0  0  0  0  0  0
    0.9232   -2.6188   -0.1273 C   0  0  0  0  0  0  0  0  0  0  0  0
    1.3040   -1.3106   -0.0674 N   0  0  0  0  0  0  0  0  0  0  0  0
   -1.5454   -2.6532    0.6942 C   0  0  0  0  0  0  0  0  0  0  0  0
   -2.3762   -3.3147    1.3076 O   0  0  0  0  0  0  0  0  0  0  0  0
   -1.6751   -1.3115    0.4574 N   0  0  0  0  0  0  0  0  0  0  0  0
   -2.6636   -0.4806    1.1291 C   0  0  2  0  0  0  0  0  0  0  0  0
   -3.9461   -0.3083    0.3478 C   0  0  0  0  0  0  0  0  0  0  0  0
   -4.7534   -1.4900   -0.1398 C   0  0  0  0  0  0  0  0  0  0  0  0
   -4.0729   -0.5920   -1.1337 C   0  0  0  0  0  0  0  0  0  0  0  0
   -1.9736    0.8811    1.3958 C   0  0  0  0  0  0  0  0  0  0  0  0
   -2.1420    1.5423    2.4180 O   0  0  0  0  0  0  0  0  0  0  0  0
   -1.2842    1.3924    0.2983 N   0  0  0  0  0  0  0  0  0  0  0  0
   -2.0314    2.2507   -0.6192 C   0  0  0  0  0  0  0  0  0  0  0  0
   -1.6035    4.3422   -1.0568 H   0  0  0  0  0  0  0  0  0  0  0  0
   -0.3816    3.9139    0.9403 H   0  0  0  0  0  0  0  0  0  0  0  0
    0.9384    3.7954   -0.2423 H   0  0  0  0  0  0  0  0  0  0  0  0
    0.5906    1.3599   -0.4297 H   0  0  0  0  0  0  0  0  0  0  0  0
    0.4230    2.1531    2.5099 H   0  0  0  0  0  0  0  0  0  0  0  0
    0.7592    0.5194    1.9929 H   0  0  0  0  0  0  0  0  0  0  0  0
    2.5635    2.3126    2.5244 H   0  0  0  0  0  0  0  0  0  0  0  0
    4.1988    1.1517    1.5485 H   0  0  0  0  0  0  0  0  0  0  0  0
    2.9844   -0.0013    2.0079 H   0  0  0  0  0  0  0  0  0  0  0  0
    5.0855    1.4626   -0.6011 H   0  0  0  0  0  0  0  0  0  0  0  0
    4.7592    0.1274   -1.7767 H   0  0  0  0  0  0  0  0  0  0  0  0
    2.8323    2.3785   -1.0530 H   0  0  0  0  0  0  0  0  0  0  0  0
    2.4699    1.0012   -2.1743 H   0  0  0  0  0  0  0  0  0  0  0  0
    4.5414   -1.9841   -0.8017 H   0  0  0  0  0  0  0  0  0  0  0  0
    1.5859   -5.7066   -0.6428 H   0  0  0  0  0  0  0  0  0  0  0  0
   -0.8137   -5.4379    0.1169 H   0  0  0  0  0  0  0  0  0  0  0  0
   -0.9418   -0.8376   -0.0623 H   0  0  0  0  0  0  0  0  0  0  0  0
   -2.8905   -0.9253    2.1053 H   0  0  0  0  0  0  0  0  0  0  0  0
   -4.5314    0.5106    0.7587 H   0  0  0  0  0  0  0  0  0  0  0  0
   -4.3650   -2.4930   -0.0118 H   0  0  0  0  0  0  0  0  0  0  0  0
   -5.8334   -1.4336   -0.0572 H   0  0  0  0  0  0  0  0  0  0  0  0
   -4.6981    0.0662   -1.7267 H   0  0  0  0  0  0  0  0  0  0  0  0
   -3.2273   -0.9980   -1.6765 H   0  0  0  0  0  0  0  0  0  0  0  0
   -2.3756    1.6478   -1.4650 H   0  0  0  0  0  0  0  0  0  0  0  0
   -2.9086    2.6530   -0.0987 H   0  0  0  0  0  0  0  0  0  0  0  0
  1  2  3  0
  2  3  1  0
  3  4  1  0
  4  5  1  0
  5  6  1  0
  6  7  1  0
  7  8  1  0
  8  9  1  0
  9 10  1  0
 10 11  1  0
  9 12  1  0
 12 13  2  0
 13 14  1  0
 14 15  2  0
 15 16  1  0
 16 17  1  0
 17 18  2  0
 18 19  1  0
 19 20  2  0
 18 21  1  0
 21 22  2  0
 21 23  1  0
 23 24  1  0
 24 25  1  0
 25 26  1  0
 26 27  1  0
 24 28  1  0
 28 29  2  0
 28 30  1  0
 30 31  1  0
 31  3  1  0
 30  5  1  0
 11  9  1  0
 20 12  1  0
 27 25  1  0
 19 15  1  0
  3 32  1  6
  4 33  1  0
  4 34  1  0
  5 35  1  0
  6 36  1  0
  6 37  1  0
  7 38  1  0
  8 39  1  0
  8 40  1  0
 10 41  1  0
 10 42  1  0
 11 43  1  0
 11 44  1  0
 13 45  1  0
 16 46  1  0
 17 47  1  0
 23 48  1  0
 24 49  1  1
 25 50  1  0
 26 51  1  0
 26 52  1  0
 27 53  1  0
 27 54  1  0
 31 55  1  0
 31 56  1  0
M  END
>  <candidate_id>  (1) 
CAND_010738c49b

>  <source_generator>  (1) 
v5_3_model_guided_macrocycle

>  <parent_mol_id>  (1) 
JAK2_69b6c7ad6e

>  <canonical_smiles>  (1) 
N#C[C@@H]1CC2CNCC3(CC3)c3cnc4[nH]cc(c4n3)C(=O)N[C@H](C3CC3)C(=O)N2C1

>  <inchikey>  (1) 
GDOIQDMSOKVZOZ-WAPNNBGYSA-N

>  <valid_rdkit>  (1) 
True

>  <unique_flag>  (1) 
True

>  <novel_flag>  (1) 
True

>  <mw>  (1) 
419.489

>  <logp>  (1) 
0.8418

>  <tpsa>  (1) 
126.8

>  <hbd>  (1) 
3

>  <hba>  (1) 
6

>  <rotatable_bonds>  (1) 
1

>  <qed>  (1) 
0.6287

>  <sa_score>  (1) 
4.661

>  <murcko_scaffold>  (1) 
O=C1N[C@H](C2CC2)C(=O)N2CCCC2CNCC2(CC2)c2cnc3[nH]cc1c3n2

>  <max_ring_size>  (1) 
14

>  <has_macrocycle_12_20>  (1) 
True

>  <has_constrained_ring_8_11>  (1) 
False

>  <passes_basic_filters>  (1) 
True

>  <generation_notes>  (1) 
v5_3_model_guided_anchor_pair=19-4;anchor_scores=0.691,0.079;linker_length=3;target_ring=13;linker_prob=0.234;chemotype=aza

$$$$
