CAND_396f994be3
     RDKit          3D

 77 83  0  0  0  0  0  0  0  0999 V2000
   -5.4814    3.1922    1.3460 C   0  0  0  0  0  0  0  0  0  0  0  0
   -5.1533    3.0413   -0.0722 N   0  0  0  0  0  0  0  0  0  0  0  0
   -4.4481    4.2476   -0.5769 C   0  0  0  0  0  0  0  0  0  0  0  0
   -2.9185    4.1281   -0.8132 C   0  0  0  0  0  0  0  0  0  0  0  0
   -2.3119    3.2610    0.1967 N   0  0  0  0  0  0  0  0  0  0  0  0
   -0.9674    3.4472    0.4773 C   0  0  0  0  0  0  0  0  0  0  0  0
   -0.4249    2.9580    1.6658 C   0  0  0  0  0  0  0  0  0  0  0  0
    0.9576    2.8607    1.8083 C   0  0  0  0  0  0  0  0  0  0  0  0
    1.7868    3.2667    0.7644 C   0  0  0  0  0  0  0  0  0  0  0  0
    1.1661    3.8538   -0.3308 C   0  0  0  0  0  0  0  0  0  0  0  0
   -0.1754    3.9771   -0.4786 N   0  0  0  0  0  0  0  0  0  0  0  0
    3.1934    2.9089    0.7375 C   0  0  0  0  0  0  0  0  0  0  0  0
    4.2382    3.7384    1.0877 C   0  0  0  0  0  0  0  0  0  0  0  0
    5.5299    3.3307    1.0417 N   0  0  0  0  0  0  0  0  0  0  0  0
    5.7563    2.0634    0.6303 C   0  0  0  0  0  0  0  0  0  0  0  0
    7.0592    1.5906    0.5707 C   0  0  0  0  0  0  0  0  0  0  0  0
    7.3434    0.2915    0.1528 C   0  0  0  0  0  0  0  0  0  0  0  0
    6.3044   -0.5551   -0.2194 C   0  0  0  0  0  0  0  0  0  0  0  0
    4.9718   -0.1113   -0.1771 C   0  0  0  0  0  0  0  0  0  0  0  0
    4.6960    1.2011    0.2577 C   0  0  0  0  0  0  0  0  0  0  0  0
    3.4235    1.6416    0.3255 N   0  0  0  0  0  0  0  0  0  0  0  0
    3.8778   -1.0190   -0.5909 C   0  0  0  0  0  0  0  0  0  0  0  0
    3.0124   -0.6753   -1.6416 C   0  0  0  0  0  0  0  0  0  0  0  0
    1.9441   -1.5020   -1.9908 C   0  0  0  0  0  0  0  0  0  0  0  0
    1.1522   -1.1261   -3.0058 F   0  0  0  0  0  0  0  0  0  0  0  0
    1.6841   -2.6914   -1.3125 C   0  0  0  0  0  0  0  0  0  0  0  0
    2.5738   -3.0537   -0.2992 C   0  0  0  0  0  0  0  0  0  0  0  0
    2.4191   -4.2184    0.3485 F   0  0  0  0  0  0  0  0  0  0  0  0
    3.6493   -2.2368    0.0649 C   0  0  0  0  0  0  0  0  0  0  0  0
    0.5251   -3.5693   -1.7121 C   0  0  0  0  0  0  0  0  0  0  0  0
   -0.3481   -3.9494   -0.5729 N   0  0  0  0  0  0  0  0  0  0  0  0
   -0.6934   -5.3824   -0.6955 C   0  0  0  0  0  0  0  0  0  0  0  0
   -1.2808   -5.9548    0.5767 C   0  0  0  0  0  0  0  0  0  0  0  0
   -2.7788   -5.1161    0.9706 S   0  0  0  0  0  0  0  0  0  0  0  0
   -3.1271   -5.4356    2.3425 O   0  0  0  0  0  0  0  0  0  0  0  0
   -3.7314   -5.3432   -0.1006 O   0  0  0  0  0  0  0  0  0  0  0  0
   -2.2673   -3.4258    0.9161 C   0  0  0  0  0  0  0  0  0  0  0  0
   -1.5625   -3.0898   -0.4035 C   0  0  0  0  0  0  0  0  0  0  0  0
   -1.2330   -1.5729   -0.4373 C   0  0  0  0  0  0  0  0  0  0  0  0
   -2.3962   -0.6195   -0.1058 C   0  0  0  0  0  0  0  0  0  0  0  0
   -1.9777    0.8328   -0.3733 C   0  0  0  0  0  0  0  0  0  0  0  0
   -2.8817    1.8910    0.3133 C   0  0  0  0  0  0  0  0  0  0  0  0
   -4.3199    1.8429   -0.2983 C   0  0  0  0  0  0  0  0  0  0  0  0
   -4.6033    3.3830    1.9724 H   0  0  0  0  0  0  0  0  0  0  0  0
   -6.1842    4.0216    1.4846 H   0  0  0  0  0  0  0  0  0  0  0  0
   -5.9848    2.2945    1.7220 H   0  0  0  0  0  0  0  0  0  0  0  0
   -4.6337    5.1027    0.0870 H   0  0  0  0  0  0  0  0  0  0  0  0
   -4.9097    4.5254   -1.5328 H   0  0  0  0  0  0  0  0  0  0  0  0
   -2.7271    3.7173   -1.8129 H   0  0  0  0  0  0  0  0  0  0  0  0
   -2.4961    5.1405   -0.7832 H   0  0  0  0  0  0  0  0  0  0  0  0
   -1.0725    2.5742    2.4465 H   0  0  0  0  0  0  0  0  0  0  0  0
    1.3722    2.3824    2.6922 H   0  0  0  0  0  0  0  0  0  0  0  0
    1.7416    4.1950   -1.1879 H   0  0  0  0  0  0  0  0  0  0  0  0
    4.0768    4.7571    1.4222 H   0  0  0  0  0  0  0  0  0  0  0  0
    7.8729    2.2528    0.8582 H   0  0  0  0  0  0  0  0  0  0  0  0
    8.3736   -0.0546    0.1140 H   0  0  0  0  0  0  0  0  0  0  0  0
    6.5373   -1.5636   -0.5571 H   0  0  0  0  0  0  0  0  0  0  0  0
    3.1457    0.2556   -2.1880 H   0  0  0  0  0  0  0  0  0  0  0  0
    4.2890   -2.5585    0.8828 H   0  0  0  0  0  0  0  0  0  0  0  0
    0.9903   -4.4545   -2.1688 H   0  0  0  0  0  0  0  0  0  0  0  0
   -0.0695   -3.1289   -2.5222 H   0  0  0  0  0  0  0  0  0  0  0  0
   -1.3670   -5.5409   -1.5475 H   0  0  0  0  0  0  0  0  0  0  0  0
    0.2154   -5.9647   -0.8950 H   0  0  0  0  0  0  0  0  0  0  0  0
   -0.5961   -5.8414    1.4234 H   0  0  0  0  0  0  0  0  0  0  0  0
   -1.5171   -7.0166    0.4593 H   0  0  0  0  0  0  0  0  0  0  0  0
   -3.1875   -2.8496    1.0500 H   0  0  0  0  0  0  0  0  0  0  0  0
   -1.6154   -3.2461    1.7780 H   0  0  0  0  0  0  0  0  0  0  0  0
   -2.2494   -3.2898   -1.2375 H   0  0  0  0  0  0  0  0  0  0  0  0
   -0.8826   -1.3076   -1.4401 H   0  0  0  0  0  0  0  0  0  0  0  0
   -0.4133   -1.3656    0.2632 H   0  0  0  0  0  0  0  0  0  0  0  0
   -3.2764   -0.8736   -0.7063 H   0  0  0  0  0  0  0  0  0  0  0  0
   -2.6648   -0.7203    0.9512 H   0  0  0  0  0  0  0  0  0  0  0  0
   -0.9444    0.9385   -0.0280 H   0  0  0  0  0  0  0  0  0  0  0  0
   -1.9466    1.0127   -1.4560 H   0  0  0  0  0  0  0  0  0  0  0  0
   -2.9635    1.6527    1.3815 H   0  0  0  0  0  0  0  0  0  0  0  0
   -4.2494    1.6974   -1.3852 H   0  0  0  0  0  0  0  0  0  0  0  0
   -4.8458    0.9539    0.0730 H   0  0  0  0  0  0  0  0  0  0  0  0
  1  2  1  0
  2  3  1  0
  3  4  1  0
  4  5  1  0
  5  6  1  0
  6  7  2  0
  7  8  1  0
  8  9  2  0
  9 10  1  0
 10 11  2  0
  9 12  1  0
 12 13  2  0
 13 14  1  0
 14 15  2  0
 15 16  1  0
 16 17  2  0
 17 18  1  0
 18 19  2  0
 19 20  1  0
 20 21  2  0
 19 22  1  0
 22 23  2  0
 23 24  1  0
 24 25  1  0
 24 26  2  0
 26 27  1  0
 27 28  1  0
 27 29  2  0
 26 30  1  0
 30 31  1  0
 31 32  1  0
 32 33  1  0
 33 34  1  0
 34 35  2  0
 34 36  2  0
 34 37  1  0
 37 38  1  0
 38 39  1  0
 39 40  1  0
 40 41  1  0
 41 42  1  0
 42 43  1  0
 43  2  1  0
 42  5  1  0
 11  6  1  0
 21 12  1  0
 29 22  1  0
 38 31  1  0
 20 15  1  0
  1 44  1  0
  1 45  1  0
  1 46  1  0
  3 47  1  0
  3 48  1  0
  4 49  1  0
  4 50  1  0
  7 51  1  0
  8 52  1  0
 10 53  1  0
 13 54  1  0
 16 55  1  0
 17 56  1  0
 18 57  1  0
 23 58  1  0
 29 59  1  0
 30 60  1  0
 30 61  1  0
 32 62  1  0
 32 63  1  0
 33 64  1  0
 33 65  1  0
 37 66  1  0
 37 67  1  0
 38 68  1  0
 39 69  1  0
 39 70  1  0
 40 71  1  0
 40 72  1  0
 41 73  1  0
 41 74  1  0
 42 75  1  0
 43 76  1  0
 43 77  1  0
M  END
>  <candidate_id>  (1) 
CAND_396f994be3

>  <source_generator>  (1) 
v5_3_model_guided_macrocycle

>  <parent_mol_id>  (1) 
JAK2_52b2cf11d9

>  <canonical_smiles>  (1) 
CN1CCN2c3ccc(cn3)-c3cnc4cccc(c4n3)-c3cc(F)c(c(F)c3)CN3CCS(=O)(=O)CC3CCCC2C1

>  <inchikey>  (1) 
XRKOBNMXKVAZDZ-UHFFFAOYSA-N

>  <valid_rdkit>  (1) 
True

>  <unique_flag>  (1) 
True

>  <novel_flag>  (1) 
True

>  <mw>  (1) 
604.727

>  <logp>  (1) 
4.5403

>  <tpsa>  (1) 
82.53

>  <hbd>  (1) 
0

>  <hba>  (1) 
8

>  <rotatable_bonds>  (1) 
0

>  <qed>  (1) 
0.2896

>  <sa_score>  (1) 
5.315

>  <murcko_scaffold>  (1) 
O=S1(=O)CCN2Cc3ccc(cc3)-c3cccc4ncc(nc34)-c3ccc(nc3)N3CCNCC3CCCC2C1

>  <max_ring_size>  (1) 
20

>  <has_macrocycle_12_20>  (1) 
True

>  <has_constrained_ring_8_11>  (1) 
False

>  <passes_basic_filters>  (1) 
True

>  <generation_notes>  (1) 
v5_3_model_guided_anchor_pair=3-24;anchor_scores=0.079,0.079;linker_length=3;target_ring=19;linker_prob=0.650;chemotype=alkyl

$$$$
