CAND_4b65fa0278
     RDKit          3D

 75 80  0  0  0  0  0  0  0  0999 V2000
    7.3728    0.5106   -0.6692 C   0  0  0  0  0  0  0  0  0  0  0  0
    6.1339    1.3308   -0.8086 C   0  0  0  0  0  0  0  0  0  0  0  0
    6.2051    2.6538   -1.2102 C   0  0  0  0  0  0  0  0  0  0  0  0
    5.1405    3.4607   -1.4029 N   0  0  0  0  0  0  0  0  0  0  0  0
    3.9404    2.9284   -1.1542 C   0  0  0  0  0  0  0  0  0  0  0  0
    3.7805    1.6692   -0.7330 N   0  0  0  0  0  0  0  0  0  0  0  0
    4.8535    0.8716   -0.5596 C   0  0  0  0  0  0  0  0  0  0  0  0
    4.4854   -0.4973   -0.1444 C   0  0  0  0  0  0  0  0  0  0  0  0
    5.0730   -1.1418    0.9539 C   0  0  0  0  0  0  0  0  0  0  0  0
    4.6541   -2.4171    1.3482 C   0  0  0  0  0  0  0  0  0  0  0  0
    3.6308   -3.0683    0.6582 C   0  0  0  0  0  0  0  0  0  0  0  0
    3.0162   -2.4552   -0.4374 C   0  0  0  0  0  0  0  0  0  0  0  0
    3.4514   -1.1772   -0.8235 C   0  0  0  0  0  0  0  0  0  0  0  0
    1.8871   -3.1375   -1.1735 C   0  0  0  0  0  0  0  0  0  0  0  0
    0.7240   -3.2718   -0.3558 O   0  0  0  0  0  0  0  0  0  0  0  0
   -0.0844   -2.0884   -0.3811 C   0  0  0  0  0  0  0  0  0  0  0  0
   -1.1255   -2.2200    0.7007 C   0  0  0  0  0  0  0  0  0  0  0  0
   -1.0587   -1.6189    1.9093 C   0  0  0  0  0  0  0  0  0  0  0  0
   -0.0332   -0.6430    2.4163 C   0  0  0  0  0  0  0  0  0  0  0  0
    0.3791    0.3035    1.4401 O   0  0  0  0  0  0  0  0  0  0  0  0
   -0.6453    1.2325    1.0857 C   0  0  0  0  0  0  0  0  0  0  0  0
   -0.2375    1.9948   -0.1482 C   0  0  0  0  0  0  0  0  0  0  0  0
    1.0233    2.6105   -0.1904 C   0  0  0  0  0  0  0  0  0  0  0  0
    1.4726    3.3170   -1.3164 C   0  0  0  0  0  0  0  0  0  0  0  0
    0.5976    3.4678   -2.3965 C   0  0  0  0  0  0  0  0  0  0  0  0
   -0.6563    2.8488   -2.3839 C   0  0  0  0  0  0  0  0  0  0  0  0
   -1.0572    2.1006   -1.2755 C   0  0  0  0  0  0  0  0  0  0  0  0
   -2.1602    1.3053   -1.4060 O   0  0  0  0  0  0  0  0  0  0  0  0
   -3.3707    1.9352   -0.9745 C   0  0  0  0  0  0  0  0  0  0  0  0
   -4.3974    0.8178   -0.6811 C   0  0  0  0  0  0  0  0  0  0  0  0
   -4.1762    0.2075    0.6471 N   0  0  0  0  0  0  0  0  0  0  0  0
   -4.8486    0.9723    1.7092 C   0  0  0  0  0  0  0  0  0  0  0  0
   -6.2451    0.3740    1.8400 C   0  0  0  0  0  0  0  0  0  0  0  0
   -6.1867   -0.9583    1.1021 C   0  0  0  0  0  0  0  0  0  0  0  0
   -4.7024   -1.1684    0.8107 C   0  0  0  0  0  0  0  0  0  0  0  0
   -4.4616   -2.2300   -0.2875 C   0  0  0  0  0  0  0  0  0  0  0  0
   -3.0893   -2.4100   -0.6403 O   0  0  0  0  0  0  0  0  0  0  0  0
   -2.3017   -3.0893    0.3389 C   0  0  0  0  0  0  0  0  0  0  0  0
    2.8145    3.7008   -1.4447 N   0  0  0  0  0  0  0  0  0  0  0  0
    7.6772    0.4536    0.3802 H   0  0  0  0  0  0  0  0  0  0  0  0
    7.2247   -0.5003   -1.0622 H   0  0  0  0  0  0  0  0  0  0  0  0
    8.2012    0.9488   -1.2369 H   0  0  0  0  0  0  0  0  0  0  0  0
    7.1627    3.1248   -1.4190 H   0  0  0  0  0  0  0  0  0  0  0  0
    5.8384   -0.6412    1.5409 H   0  0  0  0  0  0  0  0  0  0  0  0
    5.1105   -2.8942    2.2115 H   0  0  0  0  0  0  0  0  0  0  0  0
    3.2943   -4.0481    0.9902 H   0  0  0  0  0  0  0  0  0  0  0  0
    2.9526   -0.6748   -1.6533 H   0  0  0  0  0  0  0  0  0  0  0  0
    1.6437   -2.6303   -2.1155 H   0  0  0  0  0  0  0  0  0  0  0  0
    2.2156   -4.1480   -1.4431 H   0  0  0  0  0  0  0  0  0  0  0  0
   -0.5601   -1.9977   -1.3647 H   0  0  0  0  0  0  0  0  0  0  0  0
    0.5466   -1.2106   -0.2536 H   0  0  0  0  0  0  0  0  0  0  0  0
   -1.8574   -1.8107    2.6222 H   0  0  0  0  0  0  0  0  0  0  0  0
    0.8505   -1.1947    2.7537 H   0  0  0  0  0  0  0  0  0  0  0  0
   -0.4276   -0.1054    3.2868 H   0  0  0  0  0  0  0  0  0  0  0  0
   -1.5867    0.7109    0.9194 H   0  0  0  0  0  0  0  0  0  0  0  0
   -0.7924    1.9382    1.9117 H   0  0  0  0  0  0  0  0  0  0  0  0
    1.6942    2.4772    0.6578 H   0  0  0  0  0  0  0  0  0  0  0  0
    0.9216    3.9840   -3.2957 H   0  0  0  0  0  0  0  0  0  0  0  0
   -1.2865    2.8883   -3.2674 H   0  0  0  0  0  0  0  0  0  0  0  0
   -3.7435    2.5552   -1.7983 H   0  0  0  0  0  0  0  0  0  0  0  0
   -3.2140    2.5786   -0.0999 H   0  0  0  0  0  0  0  0  0  0  0  0
   -5.4147    1.2195   -0.7625 H   0  0  0  0  0  0  0  0  0  0  0  0
   -4.2811    0.0716   -1.4729 H   0  0  0  0  0  0  0  0  0  0  0  0
   -4.2978    0.8232    2.6465 H   0  0  0  0  0  0  0  0  0  0  0  0
   -4.8757    2.0530    1.5327 H   0  0  0  0  0  0  0  0  0  0  0  0
   -6.5116    0.2335    2.8929 H   0  0  0  0  0  0  0  0  0  0  0  0
   -7.0005    1.0233    1.3840 H   0  0  0  0  0  0  0  0  0  0  0  0
   -6.6040   -1.7708    1.7059 H   0  0  0  0  0  0  0  0  0  0  0  0
   -6.7703   -0.8933    0.1758 H   0  0  0  0  0  0  0  0  0  0  0  0
   -4.2346   -1.5545    1.7265 H   0  0  0  0  0  0  0  0  0  0  0  0
   -4.8809   -3.1955    0.0231 H   0  0  0  0  0  0  0  0  0  0  0  0
   -4.9936   -1.9555   -1.2047 H   0  0  0  0  0  0  0  0  0  0  0  0
   -2.8942   -3.3622    1.2202 H   0  0  0  0  0  0  0  0  0  0  0  0
   -1.9516   -4.0289   -0.1028 H   0  0  0  0  0  0  0  0  0  0  0  0
    3.0477    4.5120   -1.9915 H   0  0  0  0  0  0  0  0  0  0  0  0
  1  2  1  0
  2  3  2  0
  3  4  1  0
  4  5  2  0
  5  6  1  0
  6  7  2  0
  7  8  1  0
  8  9  2  0
  9 10  1  0
 10 11  2  0
 11 12  1  0
 12 13  2  0
 12 14  1  0
 14 15  1  0
 15 16  1  0
 16 17  1  0
 17 18  2  3
 18 19  1  0
 19 20  1  0
 20 21  1  0
 21 22  1  0
 22 23  2  0
 23 24  1  0
 24 25  2  0
 25 26  1  0
 26 27  2  0
 27 28  1  0
 28 29  1  0
 29 30  1  0
 30 31  1  0
 31 32  1  0
 32 33  1  0
 33 34  1  0
 34 35  1  0
 35 36  1  0
 36 37  1  0
 37 38  1  0
 24 39  1  0
  7  2  1  0
 13  8  1  0
 38 17  1  0
 39  5  1  0
 27 22  1  0
 35 31  1  0
  1 40  1  0
  1 41  1  0
  1 42  1  0
  3 43  1  0
  9 44  1  0
 10 45  1  0
 11 46  1  0
 13 47  1  0
 14 48  1  0
 14 49  1  0
 16 50  1  0
 16 51  1  0
 18 52  1  0
 19 53  1  0
 19 54  1  0
 21 55  1  0
 21 56  1  0
 23 57  1  0
 25 58  1  0
 26 59  1  0
 29 60  1  0
 29 61  1  0
 30 62  1  0
 30 63  1  0
 32 64  1  0
 32 65  1  0
 33 66  1  0
 33 67  1  0
 34 68  1  0
 34 69  1  0
 35 70  1  0
 36 71  1  0
 36 72  1  0
 38 73  1  0
 38 74  1  0
 39 75  1  0
M  END
>  <candidate_id>  (1) 
CAND_4b65fa0278

>  <source_generator>  (1) 
v5_3_model_guided_macrocycle

>  <parent_mol_id>  (1) 
JAK2_5e05d7987e

>  <canonical_smiles>  (1) 
Cc1cnc2nc1-c1cccc(c1)COCC1=CCOCc3cc(ccc3OCCN3CCCC3COC1)N2

>  <inchikey>  (1) 
GMOUVWABVBSNRU-UHFFFAOYSA-N

>  <valid_rdkit>  (1) 
True

>  <unique_flag>  (1) 
True

>  <novel_flag>  (1) 
True

>  <mw>  (1) 
528.653

>  <logp>  (1) 
5.0422

>  <tpsa>  (1) 
77.97

>  <hbd>  (1) 
1

>  <hba>  (1) 
8

>  <rotatable_bonds>  (1) 
0

>  <qed>  (1) 
0.4068

>  <sa_score>  (1) 
4.664

>  <murcko_scaffold>  (1) 
C1=C2COCc3cccc(c3)-c3ccnc(n3)Nc3ccc(c(c3)COC1)OCCN1CCCC1COC2

>  <max_ring_size>  (1) 
18

>  <has_macrocycle_12_20>  (1) 
True

>  <has_constrained_ring_8_11>  (1) 
False

>  <passes_basic_filters>  (1) 
True

>  <generation_notes>  (1) 
v5_3_model_guided_anchor_pair=16-31;anchor_scores=0.312,0.079;linker_length=3;target_ring=14;linker_prob=0.523;chemotype=oxa

$$$$
