CAND_584cb6401d
     RDKit          3D

 57 62  0  0  0  0  0  0  0  0999 V2000
    6.7379    1.8803    0.3317 N   0  0  0  0  0  0  0  0  0  0  0  0
    6.2025    0.8767    0.1037 C   0  0  0  0  0  0  0  0  0  0  0  0
    5.5290   -0.4007   -0.1773 C   0  0  2  0  0  0  0  0  0  0  0  0
    5.3349   -0.6168   -1.6790 C   0  0  0  0  0  0  0  0  0  0  0  0
    4.0476    0.1358   -1.9897 C   0  0  0  0  0  0  0  0  0  0  0  0
    3.2732    0.0533   -0.7650 N   0  0  0  0  0  0  0  0  0  0  0  0
    1.9151    0.3132   -0.7647 C   0  0  0  0  0  0  0  0  0  0  0  0
    1.3394    0.6290   -1.8110 O   0  0  0  0  0  0  0  0  0  0  0  0
    1.1433    0.1621    0.5787 C   0  0  2  0  0  0  0  0  0  0  0  0
    0.0965   -0.8242    0.4188 N   0  0  0  0  0  0  0  0  0  0  0  0
    0.3099   -2.1811    0.4141 C   0  0  0  0  0  0  0  0  0  0  0  0
    1.4064   -2.6933    0.6152 O   0  0  0  0  0  0  0  0  0  0  0  0
   -0.8926   -2.9572    0.1307 C   0  0  0  0  0  0  0  0  0  0  0  0
   -1.0004   -4.3341   -0.0128 C   0  0  0  0  0  0  0  0  0  0  0  0
   -2.3131   -4.6436   -0.3046 N   0  0  0  0  0  0  0  0  0  0  0  0
   -3.0580   -3.4969   -0.3497 C   0  0  0  0  0  0  0  0  0  0  0  0
   -4.3761   -3.3862   -0.6155 N   0  0  0  0  0  0  0  0  0  0  0  0
   -4.7657   -2.0754   -0.5780 C   0  0  0  0  0  0  0  0  0  0  0  0
   -3.9351   -0.9835   -0.2980 C   0  0  0  0  0  0  0  0  0  0  0  0
   -2.6235   -1.1651   -0.0277 N   0  0  0  0  0  0  0  0  0  0  0  0
   -2.1993   -2.4485   -0.0708 C   0  0  0  0  0  0  0  0  0  0  0  0
   -4.4143    0.4440   -0.2318 C   0  0  0  0  0  0  0  0  0  0  0  0
   -4.9190    1.2441   -1.4039 C   0  0  0  0  0  0  0  0  0  0  0  0
   -3.5100    1.4615   -0.9246 C   0  0  0  0  0  0  0  0  0  0  0  0
   -3.0568    2.6672   -0.1561 C   0  0  0  0  0  0  0  0  0  0  0  0
   -1.9175    2.3321    0.8243 C   0  0  0  0  0  0  0  0  0  0  0  0
   -0.5561    2.1136    0.1434 C   0  0  0  0  0  0  0  0  0  0  0  0
    0.5223    1.4948    1.0537 C   0  0  0  0  0  0  0  0  0  0  0  0
    0.4715    1.7271    2.5618 C   0  0  0  0  0  0  0  0  0  0  0  0
    1.4613    2.4818    1.7350 C   0  0  0  0  0  0  0  0  0  0  0  0
    4.0961   -0.3905    0.3538 C   0  0  0  0  0  0  0  0  0  0  0  0
    6.1100   -1.2134    0.2717 H   0  0  0  0  0  0  0  0  0  0  0  0
    6.1731   -0.2764   -2.2951 H   0  0  0  0  0  0  0  0  0  0  0  0
    5.1831   -1.6862   -1.8732 H   0  0  0  0  0  0  0  0  0  0  0  0
    4.2382    1.1950   -2.1953 H   0  0  0  0  0  0  0  0  0  0  0  0
    3.5031   -0.2943   -2.8358 H   0  0  0  0  0  0  0  0  0  0  0  0
    1.8102   -0.2207    1.3552 H   0  0  0  0  0  0  0  0  0  0  0  0
   -0.8427   -0.4955    0.2084 H   0  0  0  0  0  0  0  0  0  0  0  0
   -0.2513   -5.1125    0.0580 H   0  0  0  0  0  0  0  0  0  0  0  0
   -2.6874   -5.5669   -0.4715 H   0  0  0  0  0  0  0  0  0  0  0  0
   -5.8203   -1.9146   -0.7848 H   0  0  0  0  0  0  0  0  0  0  0  0
   -4.8216    0.7311    0.7357 H   0  0  0  0  0  0  0  0  0  0  0  0
   -5.0542    0.7419   -2.3557 H   0  0  0  0  0  0  0  0  0  0  0  0
   -5.6498    2.0221   -1.2131 H   0  0  0  0  0  0  0  0  0  0  0  0
   -2.7340    1.1055   -1.5968 H   0  0  0  0  0  0  0  0  0  0  0  0
   -2.7351    3.4476   -0.8551 H   0  0  0  0  0  0  0  0  0  0  0  0
   -3.8981    3.0789    0.4148 H   0  0  0  0  0  0  0  0  0  0  0  0
   -1.8240    3.1690    1.5269 H   0  0  0  0  0  0  0  0  0  0  0  0
   -2.1870    1.4483    1.4145 H   0  0  0  0  0  0  0  0  0  0  0  0
   -0.7012    1.4810   -0.7355 H   0  0  0  0  0  0  0  0  0  0  0  0
   -0.1924    3.0728   -0.2463 H   0  0  0  0  0  0  0  0  0  0  0  0
   -0.3397    2.2911    3.0058 H   0  0  0  0  0  0  0  0  0  0  0  0
    0.8434    0.9469    3.2187 H   0  0  0  0  0  0  0  0  0  0  0  0
    1.2940    3.5451    1.5948 H   0  0  0  0  0  0  0  0  0  0  0  0
    2.5103    2.2282    1.8397 H   0  0  0  0  0  0  0  0  0  0  0  0
    3.7736   -1.4043    0.6132 H   0  0  0  0  0  0  0  0  0  0  0  0
    3.9504    0.2605    1.2212 H   0  0  0  0  0  0  0  0  0  0  0  0
  1  2  3  0
  2  3  1  0
  3  4  1  0
  4  5  1  0
  5  6  1  0
  6  7  1  0
  7  8  2  0
  7  9  1  0
  9 10  1  0
 10 11  1  0
 11 12  2  0
 11 13  1  0
 13 14  2  0
 14 15  1  0
 15 16  1  0
 16 17  2  0
 17 18  1  0
 18 19  2  0
 19 20  1  0
 20 21  2  0
 19 22  1  0
 22 23  1  0
 23 24  1  0
 24 25  1  0
 25 26  1  0
 26 27  1  0
 27 28  1  0
 28 29  1  0
 29 30  1  0
  6 31  1  0
 31  3  1  0
 28  9  1  0
 21 13  1  0
 24 22  1  0
 30 28  1  0
 21 16  1  0
  3 32  1  1
  4 33  1  0
  4 34  1  0
  5 35  1  0
  5 36  1  0
  9 37  1  1
 10 38  1  0
 14 39  1  0
 15 40  1  0
 18 41  1  0
 22 42  1  0
 23 43  1  0
 23 44  1  0
 24 45  1  0
 25 46  1  0
 25 47  1  0
 26 48  1  0
 26 49  1  0
 27 50  1  0
 27 51  1  0
 29 52  1  0
 29 53  1  0
 30 54  1  0
 30 55  1  0
 31 56  1  0
 31 57  1  0
M  END
>  <candidate_id>  (1) 
CAND_584cb6401d

>  <source_generator>  (1) 
v5_3_model_guided_macrocycle

>  <parent_mol_id>  (1) 
JAK2_69b6c7ad6e

>  <canonical_smiles>  (1) 
N#C[C@@H]1CCN(C(=O)[C@@H]2NC(=O)c3c[nH]c4ncc(nc34)C3CC3CCCC23CC3)C1

>  <inchikey>  (1) 
HOMDVHDDTYNNLA-URGFFDDHSA-N

>  <valid_rdkit>  (1) 
True

>  <unique_flag>  (1) 
True

>  <novel_flag>  (1) 
True

>  <mw>  (1) 
418.501

>  <logp>  (1) 
2.496

>  <tpsa>  (1) 
114.77

>  <hbd>  (1) 
2

>  <hba>  (1) 
5

>  <rotatable_bonds>  (1) 
1

>  <qed>  (1) 
0.7384

>  <sa_score>  (1) 
4.906

>  <murcko_scaffold>  (1) 
O=C1N[C@@H](C(=O)N2CCCC2)C2(CCCC3CC3c3cnc4[nH]cc1c4n3)CC2

>  <max_ring_size>  (1) 
13

>  <has_macrocycle_12_20>  (1) 
True

>  <has_constrained_ring_8_11>  (1) 
False

>  <passes_basic_filters>  (1) 
True

>  <generation_notes>  (1) 
v5_3_model_guided_anchor_pair=24-20;anchor_scores=0.691,0.079;linker_length=3;target_ring=12;linker_prob=0.278;chemotype=oxa_aza

$$$$
