CAND_637465f4e1
     RDKit          3D

 70 76  0  0  0  0  0  0  0  0999 V2000
    7.2277   -1.5340    1.6366 N   0  0  0  0  0  0  0  0  0  0  0  0
    6.8544   -0.2540    1.9388 C   0  0  0  0  0  0  0  0  0  0  0  0
    7.3661    0.3587    2.8647 O   0  0  0  0  0  0  0  0  0  0  0  0
    5.8459    0.3673    1.0719 C   0  0  0  0  0  0  0  0  0  0  0  0
    5.8725    1.7387    0.8294 C   0  0  0  0  0  0  0  0  0  0  0  0
    4.9529    2.4274    0.0982 N   0  0  0  0  0  0  0  0  0  0  0  0
    3.9298    1.7528   -0.4699 C   0  0  0  0  0  0  0  0  0  0  0  0
    3.9217    0.3410   -0.3996 C   0  0  0  0  0  0  0  0  0  0  0  0
    4.7925   -0.3185    0.4649 C   0  0  0  0  0  0  0  0  0  0  0  0
    4.2919   -1.5994    0.6171 N   0  0  0  0  0  0  0  0  0  0  0  0
    3.1579   -1.7676   -0.1499 C   0  0  0  0  0  0  0  0  0  0  0  0
    2.1478   -2.7427   -0.1371 C   0  0  0  0  0  0  0  0  0  0  0  0
    1.0428   -2.5415   -0.9965 C   0  0  0  0  0  0  0  0  0  0  0  0
    1.1286   -1.5657   -2.0086 C   0  0  0  0  0  0  0  0  0  0  0  0
    2.1322   -0.6094   -1.9982 C   0  0  0  0  0  0  0  0  0  0  0  0
    3.0753   -0.6480   -0.9673 C   0  0  0  0  0  0  0  0  0  0  0  0
   -0.3032   -3.0508   -0.6559 C   0  0  0  0  0  0  0  0  0  0  0  0
   -1.3147   -3.1316   -1.6024 C   0  0  0  0  0  0  0  0  0  0  0  0
   -2.5964   -2.7611   -1.2161 C   0  0  0  0  0  0  0  0  0  0  0  0
   -2.8322   -2.4084    0.1032 C   0  0  0  0  0  0  0  0  0  0  0  0
   -1.8858   -2.6244    1.0369 N   0  0  0  0  0  0  0  0  0  0  0  0
   -0.6094   -2.9329    0.6580 N   0  0  0  0  0  0  0  0  0  0  0  0
   -3.9766   -1.7136    0.4435 N   0  0  0  0  0  0  0  0  0  0  0  0
   -4.7244   -2.1652    1.6028 C   0  0  0  0  0  0  0  0  0  0  0  0
   -6.1573   -2.4105    1.1745 C   0  0  0  0  0  0  0  0  0  0  0  0
   -6.7809   -1.0323    0.2288 S   0  0  0  0  0  0  0  0  0  0  0  0
   -6.8777   -1.4237   -1.1660 O   0  0  0  0  0  0  0  0  0  0  0  0
   -7.9473   -0.5169    0.9236 O   0  0  0  0  0  0  0  0  0  0  0  0
   -5.5181    0.2040    0.3559 C   0  0  0  0  0  0  0  0  0  0  0  0
   -4.1527   -0.3396   -0.0713 C   0  0  0  0  0  0  0  0  0  0  0  0
   -3.0530    0.6254    0.4676 C   0  0  0  0  0  0  0  0  0  0  0  0
   -1.9138    0.9598   -0.5232 C   0  0  0  0  0  0  0  0  0  0  0  0
   -0.8963    1.9064    0.1399 C   0  0  0  0  0  0  0  0  0  0  0  0
    0.2781    2.4260   -0.7198 C   0  0  0  0  0  0  0  0  0  0  0  0
   -0.0262    3.6643   -1.5560 C   0  0  0  0  0  0  0  0  0  0  0  0
    0.2195    2.3626   -2.2451 C   0  0  0  0  0  0  0  0  0  0  0  0
    1.6509    2.3741    0.0310 C   0  0  2  0  0  0  0  0  0  0  0  0
    1.7190    3.4276    1.1855 C   0  0  0  0  0  0  0  0  0  0  0  0
    1.8861    4.6819    0.6986 F   0  0  0  0  0  0  0  0  0  0  0  0
    0.5924    3.4359    1.9376 F   0  0  0  0  0  0  0  0  0  0  0  0
    2.7436    3.1785    2.0334 F   0  0  0  0  0  0  0  0  0  0  0  0
    2.8215    2.4915   -0.9054 N   0  0  0  0  0  0  0  0  0  0  0  0
    6.9648   -2.0052    0.7826 H   0  0  0  0  0  0  0  0  0  0  0  0
    7.9461   -1.9527    2.2152 H   0  0  0  0  0  0  0  0  0  0  0  0
    6.6541    2.3586    1.2656 H   0  0  0  0  0  0  0  0  0  0  0  0
    4.6146   -2.2592    1.3120 H   0  0  0  0  0  0  0  0  0  0  0  0
    2.1218   -3.5067    0.6355 H   0  0  0  0  0  0  0  0  0  0  0  0
    0.3159   -1.4042   -2.7139 H   0  0  0  0  0  0  0  0  0  0  0  0
    2.1000    0.2290   -2.6858 H   0  0  0  0  0  0  0  0  0  0  0  0
   -1.0948   -3.2734   -2.6553 H   0  0  0  0  0  0  0  0  0  0  0  0
   -3.3792   -2.6539   -1.9604 H   0  0  0  0  0  0  0  0  0  0  0  0
   -4.3244   -3.0967    2.0233 H   0  0  0  0  0  0  0  0  0  0  0  0
   -4.6724   -1.4167    2.4025 H   0  0  0  0  0  0  0  0  0  0  0  0
   -6.2295   -3.2955    0.5335 H   0  0  0  0  0  0  0  0  0  0  0  0
   -6.8025   -2.5546    2.0456 H   0  0  0  0  0  0  0  0  0  0  0  0
   -5.5184    0.5401    1.3996 H   0  0  0  0  0  0  0  0  0  0  0  0
   -5.8159    1.0532   -0.2679 H   0  0  0  0  0  0  0  0  0  0  0  0
   -4.1286   -0.3602   -1.1683 H   0  0  0  0  0  0  0  0  0  0  0  0
   -2.6238    0.2287    1.3965 H   0  0  0  0  0  0  0  0  0  0  0  0
   -3.5170    1.5842    0.7364 H   0  0  0  0  0  0  0  0  0  0  0  0
   -1.4064    0.0494   -0.8531 H   0  0  0  0  0  0  0  0  0  0  0  0
   -2.3520    1.4341   -1.4078 H   0  0  0  0  0  0  0  0  0  0  0  0
   -0.4909    1.3794    1.0130 H   0  0  0  0  0  0  0  0  0  0  0  0
   -1.4291    2.7793    0.5393 H   0  0  0  0  0  0  0  0  0  0  0  0
   -1.0379    4.0565   -1.5669 H   0  0  0  0  0  0  0  0  0  0  0  0
    0.7307    4.4356   -1.6560 H   0  0  0  0  0  0  0  0  0  0  0  0
   -0.6163    1.8845   -2.7396 H   0  0  0  0  0  0  0  0  0  0  0  0
    1.1357    2.2888   -2.8210 H   0  0  0  0  0  0  0  0  0  0  0  0
    1.6702    1.3888    0.5130 H   0  0  0  0  0  0  0  0  0  0  0  0
    3.1003    3.4566   -1.0713 H   0  0  0  0  0  0  0  0  0  0  0  0
  1  2  1  0
  2  3  2  0
  2  4  1  0
  4  5  2  0
  5  6  1  0
  6  7  2  0
  7  8  1  0
  8  9  2  0
  9 10  1  0
 10 11  1  0
 11 12  2  0
 12 13  1  0
 13 14  2  0
 14 15  1  0
 15 16  2  0
 13 17  1  0
 17 18  2  0
 18 19  1  0
 19 20  2  0
 20 21  1  0
 21 22  2  0
 20 23  1  0
 23 24  1  0
 24 25  1  0
 25 26  1  0
 26 27  2  0
 26 28  2  0
 26 29  1  0
 29 30  1  0
 30 31  1  0
 31 32  1  0
 32 33  1  0
 33 34  1  0
 34 35  1  0
 35 36  1  0
 34 37  1  0
 37 38  1  0
 38 39  1  0
 38 40  1  0
 38 41  1  0
 37 42  1  0
  9  4  1  0
 16 11  1  0
 22 17  1  0
 30 23  1  0
 36 34  1  0
 42  7  1  0
 16  8  1  0
  1 43  1  0
  1 44  1  0
  5 45  1  0
 10 46  1  0
 12 47  1  0
 14 48  1  0
 15 49  1  0
 18 50  1  0
 19 51  1  0
 24 52  1  0
 24 53  1  0
 25 54  1  0
 25 55  1  0
 29 56  1  0
 29 57  1  0
 30 58  1  0
 31 59  1  0
 31 60  1  0
 32 61  1  0
 32 62  1  0
 33 63  1  0
 33 64  1  0
 35 65  1  0
 35 66  1  0
 36 67  1  0
 36 68  1  0
 37 69  1  1
 42 70  1  0
M  END
>  <candidate_id>  (1) 
CAND_637465f4e1

>  <source_generator>  (1) 
v5_3_model_guided_macrocycle

>  <parent_mol_id>  (1) 
JAK2_b8536fbab5

>  <canonical_smiles>  (1) 
NC(=O)c1cnc2c3c1[nH]c1cc(ccc13)-c1ccc(nn1)N1CCS(=O)(=O)CC1CCCC1(CC1)[C@H](C(F)(F)F)N2

>  <inchikey>  (1) 
XQNAVBPORQFBPI-IIVOFZELSA-N

>  <valid_rdkit>  (1) 
True

>  <unique_flag>  (1) 
True

>  <novel_flag>  (1) 
True

>  <mw>  (1) 
599.639

>  <logp>  (1) 
4.1823

>  <tpsa>  (1) 
146.96

>  <hbd>  (1) 
3

>  <hba>  (1) 
8

>  <rotatable_bonds>  (1) 
1

>  <qed>  (1) 
0.2953

>  <sa_score>  (1) 
5.412

>  <murcko_scaffold>  (1) 
O=S1(=O)CCN2c3ccc(nn3)-c3ccc4c(c3)[nH]c3ccnc(c34)NCC3(CCCC2C1)CC3

>  <max_ring_size>  (1) 
18

>  <has_macrocycle_12_20>  (1) 
True

>  <has_constrained_ring_8_11>  (1) 
False

>  <passes_basic_filters>  (1) 
True

>  <generation_notes>  (1) 
v5_3_model_guided_anchor_pair=9-27;anchor_scores=0.691,0.079;linker_length=3;target_ring=17;linker_prob=0.683;chemotype=alkyl

$$$$
