CAND_d93664c4b9
     RDKit          3D

 57 62  0  0  0  0  0  0  0  0999 V2000
    7.8949   -0.8117   -0.0944 N   0  0  0  0  0  0  0  0  0  0  0  0
    6.8211   -0.7045    0.3317 C   0  0  0  0  0  0  0  0  0  0  0  0
    5.4711   -0.5619    0.8741 C   0  0  1  0  0  0  0  0  0  0  0  0
    5.2301    0.8075    1.5102 C   0  0  0  0  0  0  0  0  0  0  0  0
    3.7126    0.9287    1.4942 C   0  0  0  0  0  0  0  0  0  0  0  0
    3.2993    0.1700    0.3251 N   0  0  0  0  0  0  0  0  0  0  0  0
    2.0293    0.0672   -0.2098 C   0  0  0  0  0  0  0  0  0  0  0  0
    1.8217   -0.6648   -1.1829 O   0  0  0  0  0  0  0  0  0  0  0  0
    0.8823    0.8686    0.4717 C   0  0  2  0  0  0  0  0  0  0  0  0
   -0.1489   -0.0514    0.9013 N   0  0  0  0  0  0  0  0  0  0  0  0
   -0.0553   -0.8471    2.0171 C   0  0  0  0  0  0  0  0  0  0  0  0
    0.8880   -0.8042    2.8002 O   0  0  0  0  0  0  0  0  0  0  0  0
   -1.1797   -1.7637    2.1728 C   0  0  0  0  0  0  0  0  0  0  0  0
   -1.3550   -2.7341    3.1502 C   0  0  0  0  0  0  0  0  0  0  0  0
   -2.5419   -3.3942    2.9057 N   0  0  0  0  0  0  0  0  0  0  0  0
   -3.1399   -2.8700    1.7925 C   0  0  0  0  0  0  0  0  0  0  0  0
   -4.3037   -3.2556    1.2293 N   0  0  0  0  0  0  0  0  0  0  0  0
   -4.5742   -2.5022    0.1201 C   0  0  0  0  0  0  0  0  0  0  0  0
   -3.7764   -1.4647   -0.3776 C   0  0  0  0  0  0  0  0  0  0  0  0
   -2.6268   -1.1187    0.2432 N   0  0  0  0  0  0  0  0  0  0  0  0
   -2.3190   -1.8542    1.3356 C   0  0  0  0  0  0  0  0  0  0  0  0
   -4.1296   -0.6363   -1.5863 C   0  0  0  0  0  0  0  0  0  0  0  0
   -4.1903   -1.1501   -3.0010 C   0  0  0  0  0  0  0  0  0  0  0  0
   -2.9761   -0.3828   -2.5549 C   0  0  0  0  0  0  0  0  0  0  0  0
   -2.6722    1.0276   -2.9646 C   0  0  0  0  0  0  0  0  0  0  0  0
   -1.9134    1.7966   -1.8673 C   0  0  0  0  0  0  0  0  0  0  0  0
   -0.4347    1.3951   -1.7360 C   0  0  0  0  0  0  0  0  0  0  0  0
    0.2625    1.9266   -0.4686 C   0  0  0  0  0  0  0  0  0  0  0  0
   -0.2230    3.2192    0.1828 C   0  0  0  0  0  0  0  0  0  0  0  0
    1.0301    3.2320   -0.6310 C   0  0  0  0  0  0  0  0  0  0  0  0
    4.4038   -0.6099   -0.2129 C   0  0  0  0  0  0  0  0  0  0  0  0
    5.2736   -1.3441    1.6181 H   0  0  0  0  0  0  0  0  0  0  0  0
    5.6445    0.8895    2.5199 H   0  0  0  0  0  0  0  0  0  0  0  0
    5.6740    1.6064    0.9015 H   0  0  0  0  0  0  0  0  0  0  0  0
    3.2671    0.4643    2.3795 H   0  0  0  0  0  0  0  0  0  0  0  0
    3.3815    1.9681    1.4253 H   0  0  0  0  0  0  0  0  0  0  0  0
    1.2521    1.3605    1.3749 H   0  0  0  0  0  0  0  0  0  0  0  0
   -0.9543   -0.1859    0.2949 H   0  0  0  0  0  0  0  0  0  0  0  0
   -0.7293   -3.0138    3.9883 H   0  0  0  0  0  0  0  0  0  0  0  0
   -2.9252   -4.1564    3.4466 H   0  0  0  0  0  0  0  0  0  0  0  0
   -5.5003   -2.7631   -0.3848 H   0  0  0  0  0  0  0  0  0  0  0  0
   -4.7817    0.2078   -1.3710 H   0  0  0  0  0  0  0  0  0  0  0  0
   -4.0772   -2.2152   -3.1718 H   0  0  0  0  0  0  0  0  0  0  0  0
   -4.8757   -0.6681   -3.6892 H   0  0  0  0  0  0  0  0  0  0  0  0
   -2.0680   -0.9718   -2.4587 H   0  0  0  0  0  0  0  0  0  0  0  0
   -2.0894    1.0222   -3.8926 H   0  0  0  0  0  0  0  0  0  0  0  0
   -3.6074    1.5592   -3.1795 H   0  0  0  0  0  0  0  0  0  0  0  0
   -2.4235    1.6657   -0.9056 H   0  0  0  0  0  0  0  0  0  0  0  0
   -1.9628    2.8645   -2.1122 H   0  0  0  0  0  0  0  0  0  0  0  0
   -0.3637    0.3052   -1.7638 H   0  0  0  0  0  0  0  0  0  0  0  0
    0.1115    1.7443   -2.6214 H   0  0  0  0  0  0  0  0  0  0  0  0
   -1.0808    3.7484   -0.2140 H   0  0  0  0  0  0  0  0  0  0  0  0
   -0.1347    3.3204    1.2602 H   0  0  0  0  0  0  0  0  0  0  0  0
    1.9723    3.3590   -0.1101 H   0  0  0  0  0  0  0  0  0  0  0  0
    1.0019    3.7390   -1.5903 H   0  0  0  0  0  0  0  0  0  0  0  0
    4.7229   -0.1306   -1.1466 H   0  0  0  0  0  0  0  0  0  0  0  0
    4.0860   -1.6326   -0.4428 H   0  0  0  0  0  0  0  0  0  0  0  0
  1  2  3  0
  2  3  1  0
  3  4  1  0
  4  5  1  0
  5  6  1  0
  6  7  1  0
  7  8  2  0
  7  9  1  0
  9 10  1  0
 10 11  1  0
 11 12  2  0
 11 13  1  0
 13 14  2  0
 14 15  1  0
 15 16  1  0
 16 17  2  0
 17 18  1  0
 18 19  2  0
 19 20  1  0
 20 21  2  0
 19 22  1  0
 22 23  1  0
 23 24  1  0
 24 25  1  0
 25 26  1  0
 26 27  1  0
 27 28  1  0
 28 29  1  0
 29 30  1  0
  6 31  1  0
 31  3  1  0
 28  9  1  0
 21 13  1  0
 24 22  1  0
 30 28  1  0
 21 16  1  0
  3 32  1  1
  4 33  1  0
  4 34  1  0
  5 35  1  0
  5 36  1  0
  9 37  1  1
 10 38  1  0
 14 39  1  0
 15 40  1  0
 18 41  1  0
 22 42  1  0
 23 43  1  0
 23 44  1  0
 24 45  1  0
 25 46  1  0
 25 47  1  0
 26 48  1  0
 26 49  1  0
 27 50  1  0
 27 51  1  0
 29 52  1  0
 29 53  1  0
 30 54  1  0
 30 55  1  0
 31 56  1  0
 31 57  1  0
M  END
>  <candidate_id>  (1) 
CAND_d93664c4b9

>  <source_generator>  (1) 
v5_3_model_guided_macrocycle

>  <parent_mol_id>  (1) 
JAK2_9dcdbe0544

>  <canonical_smiles>  (1) 
N#C[C@H]1CCN(C(=O)[C@@H]2NC(=O)c3c[nH]c4ncc(nc34)C3CC3CCCC23CC3)C1

>  <inchikey>  (1) 
HOMDVHDDTYNNLA-JXGBTDEFSA-N

>  <valid_rdkit>  (1) 
True

>  <unique_flag>  (1) 
True

>  <novel_flag>  (1) 
True

>  <mw>  (1) 
418.501

>  <logp>  (1) 
2.496

>  <tpsa>  (1) 
114.77

>  <hbd>  (1) 
2

>  <hba>  (1) 
5

>  <rotatable_bonds>  (1) 
1

>  <qed>  (1) 
0.7384

>  <sa_score>  (1) 
4.906

>  <murcko_scaffold>  (1) 
O=C1N[C@@H](C(=O)N2CCCC2)C2(CCCC3CC3c3cnc4[nH]cc1c4n3)CC2

>  <max_ring_size>  (1) 
13

>  <has_macrocycle_12_20>  (1) 
True

>  <has_constrained_ring_8_11>  (1) 
False

>  <passes_basic_filters>  (1) 
True

>  <generation_notes>  (1) 
v5_3_model_guided_anchor_pair=24-20;anchor_scores=0.691,0.079;linker_length=3;target_ring=12;linker_prob=0.278;chemotype=oxa_aza

$$$$
