CAND_1e356c92c8
     RDKit          3D

 55 60  0  0  0  0  0  0  0  0999 V2000
   -3.7068    5.3809    1.0006 N   0  0  0  0  0  0  0  0  0  0  0  0
   -2.7879    4.6837    0.8789 C   0  0  0  0  0  0  0  0  0  0  0  0
   -1.6282    3.8032    0.7274 C   0  0  2  0  0  0  0  0  0  0  0  0
   -0.9162    4.0020   -0.6207 C   0  0  0  0  0  0  0  0  0  0  0  0
   -0.2206    2.6575   -0.8542 C   0  0  0  0  0  0  0  0  0  0  0  0
    1.1467    2.6149   -0.1183 C   0  0  0  0  0  0  0  0  0  0  0  0
    1.7513    1.3352    0.0304 O   0  0  0  0  0  0  0  0  0  0  0  0
    2.2315    0.7391   -1.1730 C   0  0  0  0  0  0  0  0  0  0  0  0
    3.3431   -0.2595   -0.8341 C   0  0  0  0  0  0  0  0  0  0  0  0
    4.7505    0.3173   -0.7634 C   0  0  0  0  0  0  0  0  0  0  0  0
    4.3631   -0.5461   -1.9283 C   0  0  0  0  0  0  0  0  0  0  0  0
    2.9212   -1.4314    0.0828 C   0  0  0  0  0  0  0  0  0  0  0  0
    3.8401   -2.2711    0.7417 C   0  0  0  0  0  0  0  0  0  0  0  0
    3.5461   -3.2915    1.6037 N   0  0  0  0  0  0  0  0  0  0  0  0
    2.2158   -3.3808    1.7828 C   0  0  0  0  0  0  0  0  0  0  0  0
    1.5586   -4.2367    2.6223 N   0  0  0  0  0  0  0  0  0  0  0  0
    0.2074   -3.9763    2.5820 C   0  0  0  0  0  0  0  0  0  0  0  0
   -0.0159   -2.9534    1.6701 C   0  0  0  0  0  0  0  0  0  0  0  0
    1.2611   -2.5971    1.1586 C   0  0  0  0  0  0  0  0  0  0  0  0
    1.5933   -1.6372    0.2584 N   0  0  0  0  0  0  0  0  0  0  0  0
   -1.2927   -2.3242    1.3573 C   0  0  0  0  0  0  0  0  0  0  0  0
   -2.2975   -2.4839    2.0405 O   0  0  0  0  0  0  0  0  0  0  0  0
   -1.2339   -1.5095    0.2607 N   0  0  0  0  0  0  0  0  0  0  0  0
   -2.2552   -0.5626   -0.1401 C   0  0  2  0  0  0  0  0  0  0  0  0
   -3.2751   -1.2479   -1.0079 C   0  0  0  0  0  0  0  0  0  0  0  0
   -4.4665   -1.9477   -0.4007 C   0  0  0  0  0  0  0  0  0  0  0  0
   -4.6598   -0.6668   -1.1628 C   0  0  0  0  0  0  0  0  0  0  0  0
   -1.4521    0.5019   -0.9316 C   0  0  0  0  0  0  0  0  0  0  0  0
   -0.9457    0.2269   -2.0248 O   0  0  0  0  0  0  0  0  0  0  0  0
   -1.2036    1.7154   -0.3202 N   0  0  0  0  0  0  0  0  0  0  0  0
   -2.0288    2.3255    0.7126 C   0  0  0  0  0  0  0  0  0  0  0  0
   -0.9236    3.9831    1.5481 H   0  0  0  0  0  0  0  0  0  0  0  0
   -0.2262    4.8522   -0.6110 H   0  0  0  0  0  0  0  0  0  0  0  0
   -1.6488    4.1794   -1.4198 H   0  0  0  0  0  0  0  0  0  0  0  0
   -0.0560    2.4742   -1.9212 H   0  0  0  0  0  0  0  0  0  0  0  0
    1.0255    2.9890    0.9039 H   0  0  0  0  0  0  0  0  0  0  0  0
    1.8540    3.2971   -0.6062 H   0  0  0  0  0  0  0  0  0  0  0  0
    2.6137    1.5155   -1.8475 H   0  0  0  0  0  0  0  0  0  0  0  0
    1.4206    0.2221   -1.6878 H   0  0  0  0  0  0  0  0  0  0  0  0
    5.4628   -0.0677   -0.0448 H   0  0  0  0  0  0  0  0  0  0  0  0
    4.8784    1.3812   -0.9395 H   0  0  0  0  0  0  0  0  0  0  0  0
    4.7969   -1.5376   -1.9992 H   0  0  0  0  0  0  0  0  0  0  0  0
    4.2307   -0.0708   -2.8947 H   0  0  0  0  0  0  0  0  0  0  0  0
    4.9072   -2.1412    0.5890 H   0  0  0  0  0  0  0  0  0  0  0  0
    2.0201   -4.9193    3.2063 H   0  0  0  0  0  0  0  0  0  0  0  0
   -0.4834   -4.5257    3.2091 H   0  0  0  0  0  0  0  0  0  0  0  0
   -0.3443   -1.4542   -0.2362 H   0  0  0  0  0  0  0  0  0  0  0  0
   -2.7155   -0.1481    0.7601 H   0  0  0  0  0  0  0  0  0  0  0  0
   -2.8257   -1.7032   -1.8854 H   0  0  0  0  0  0  0  0  0  0  0  0
   -4.5863   -1.9278    0.6772 H   0  0  0  0  0  0  0  0  0  0  0  0
   -4.7934   -2.8738   -0.8600 H   0  0  0  0  0  0  0  0  0  0  0  0
   -5.1252   -0.7248   -2.1407 H   0  0  0  0  0  0  0  0  0  0  0  0
   -4.9280    0.2180   -0.5973 H   0  0  0  0  0  0  0  0  0  0  0  0
   -3.0839    2.1604    0.4665 H   0  0  0  0  0  0  0  0  0  0  0  0
   -1.8127    1.8424    1.6715 H   0  0  0  0  0  0  0  0  0  0  0  0
  1  2  3  0
  2  3  1  0
  3  4  1  0
  4  5  1  0
  5  6  1  0
  6  7  1  0
  7  8  1  0
  8  9  1  0
  9 10  1  0
 10 11  1  0
  9 12  1  0
 12 13  2  0
 13 14  1  0
 14 15  2  0
 15 16  1  0
 16 17  1  0
 17 18  2  0
 18 19  1  0
 19 20  2  0
 18 21  1  0
 21 22  2  0
 21 23  1  0
 23 24  1  0
 24 25  1  0
 25 26  1  0
 26 27  1  0
 24 28  1  0
 28 29  2  0
 28 30  1  0
 30 31  1  0
 31  3  1  0
 30  5  1  0
 11  9  1  0
 20 12  1  0
 27 25  1  0
 19 15  1  0
  3 32  1  1
  4 33  1  0
  4 34  1  0
  5 35  1  0
  6 36  1  0
  6 37  1  0
  8 38  1  0
  8 39  1  0
 10 40  1  0
 10 41  1  0
 11 42  1  0
 11 43  1  0
 13 44  1  0
 16 45  1  0
 17 46  1  0
 23 47  1  0
 24 48  1  1
 25 49  1  0
 26 50  1  0
 26 51  1  0
 27 52  1  0
 27 53  1  0
 31 54  1  0
 31 55  1  0
M  END
>  <candidate_id>  (1) 
CAND_1e356c92c8

>  <source_generator>  (1) 
v5_3_model_guided_macrocycle

>  <parent_mol_id>  (1) 
JAK2_69b6c7ad6e

>  <canonical_smiles>  (1) 
N#C[C@@H]1CC2COCC3(CC3)c3cnc4[nH]cc(c4n3)C(=O)N[C@H](C3CC3)C(=O)N2C1

>  <inchikey>  (1) 
CJARQMPCFPOYTL-WAPNNBGYSA-N

>  <valid_rdkit>  (1) 
True

>  <unique_flag>  (1) 
True

>  <novel_flag>  (1) 
True

>  <mw>  (1) 
420.473

>  <logp>  (1) 
1.2688

>  <tpsa>  (1) 
124.0

>  <hbd>  (1) 
2

>  <hba>  (1) 
6

>  <rotatable_bonds>  (1) 
1

>  <qed>  (1) 
0.716

>  <sa_score>  (1) 
4.667

>  <murcko_scaffold>  (1) 
O=C1N[C@H](C2CC2)C(=O)N2CCCC2COCC2(CC2)c2cnc3[nH]cc1c3n2

>  <max_ring_size>  (1) 
14

>  <has_macrocycle_12_20>  (1) 
True

>  <has_constrained_ring_8_11>  (1) 
False

>  <passes_basic_filters>  (1) 
True

>  <generation_notes>  (1) 
v5_3_model_guided_anchor_pair=19-4;anchor_scores=0.691,0.079;linker_length=3;target_ring=13;linker_prob=0.234;chemotype=oxa

$$$$
