CAND_72609efe2c
     RDKit          3D

 69 74  0  0  0  0  0  0  0  0999 V2000
    0.9985    2.4577    1.3480 C   0  0  0  0  0  0  0  0  0  0  0  0
    0.2822    2.0110    0.2944 C   0  0  0  0  0  0  0  0  0  0  0  0
    0.3470    0.5471   -0.0606 C   0  0  0  0  0  0  0  0  0  0  0  0
    0.7478    0.3922   -1.4218 O   0  0  0  0  0  0  0  0  0  0  0  0
   -0.0647   -0.5610   -2.1247 C   0  0  0  0  0  0  0  0  0  0  0  0
    0.0396   -1.9512   -1.5384 C   0  0  0  0  0  0  0  0  0  0  0  0
    1.2967   -2.4233   -1.1147 C   0  0  0  0  0  0  0  0  0  0  0  0
    1.4630   -3.6690   -0.5017 C   0  0  0  0  0  0  0  0  0  0  0  0
    0.3345   -4.4922   -0.4027 C   0  0  0  0  0  0  0  0  0  0  0  0
   -0.9209   -4.0589   -0.8522 C   0  0  0  0  0  0  0  0  0  0  0  0
   -1.0769   -2.7746   -1.3773 C   0  0  0  0  0  0  0  0  0  0  0  0
   -2.2947   -2.3208   -1.8068 O   0  0  0  0  0  0  0  0  0  0  0  0
   -3.3094   -2.2871   -0.7896 C   0  0  0  0  0  0  0  0  0  0  0  0
   -3.5446   -0.8507   -0.2585 C   0  0  0  0  0  0  0  0  0  0  0  0
   -4.0438    0.1109   -1.2608 N   0  0  0  0  0  0  0  0  0  0  0  0
   -5.4590   -0.1284   -1.5920 C   0  0  0  0  0  0  0  0  0  0  0  0
   -6.2710    0.6546   -0.5655 C   0  0  0  0  0  0  0  0  0  0  0  0
   -5.2972    1.6598    0.0372 C   0  0  0  0  0  0  0  0  0  0  0  0
   -4.0398    1.5359   -0.8206 C   0  0  0  0  0  0  0  0  0  0  0  0
   -2.7954    2.1509   -0.1396 C   0  0  0  0  0  0  0  0  0  0  0  0
   -1.7239    2.2007   -1.0798 O   0  0  0  0  0  0  0  0  0  0  0  0
   -0.5468    2.8725   -0.6230 C   0  0  0  0  0  0  0  0  0  0  0  0
    2.6661   -4.0662    0.0960 N   0  0  0  0  0  0  0  0  0  0  0  0
    3.7444   -3.3198    0.5736 C   0  0  0  0  0  0  0  0  0  0  0  0
    4.7329   -4.0080    1.1657 N   0  0  0  0  0  0  0  0  0  0  0  0
    5.7448   -3.2934    1.7017 C   0  0  0  0  0  0  0  0  0  0  0  0
    5.8107   -1.9221    1.6816 C   0  0  0  0  0  0  0  0  0  0  0  0
    4.7609   -1.3052    1.0503 C   0  0  0  0  0  0  0  0  0  0  0  0
    3.7412   -1.9853    0.4953 N   0  0  0  0  0  0  0  0  0  0  0  0
    4.6281    0.1431    0.9107 C   0  0  0  0  0  0  0  0  0  0  0  0
    4.4334    0.8700   -0.2481 C   0  0  0  0  0  0  0  0  0  0  0  0
    4.1680    2.2448    0.0079 C   0  0  0  0  0  0  0  0  0  0  0  0
    4.1110    2.5220    1.3601 C   0  0  0  0  0  0  0  0  0  0  0  0
    4.5837    1.1584    2.2910 S   0  0  0  0  0  0  0  0  0  0  0  0
    3.6670    3.7871    2.0330 C   0  0  0  0  0  0  0  0  0  0  0  0
    2.5319    4.3166    1.3328 O   0  0  0  0  0  0  0  0  0  0  0  0
    1.2571    3.8615    1.7972 C   0  0  0  0  0  0  0  0  0  0  0  0
    1.5304    1.7130    1.9375 H   0  0  0  0  0  0  0  0  0  0  0  0
   -0.6217    0.0911    0.1452 H   0  0  0  0  0  0  0  0  0  0  0  0
    1.0831    0.0192    0.5566 H   0  0  0  0  0  0  0  0  0  0  0  0
    0.2923   -0.5933   -3.1600 H   0  0  0  0  0  0  0  0  0  0  0  0
   -1.0940   -0.1915   -2.1501 H   0  0  0  0  0  0  0  0  0  0  0  0
    2.1533   -1.7664   -1.2522 H   0  0  0  0  0  0  0  0  0  0  0  0
    0.4148   -5.4766    0.0512 H   0  0  0  0  0  0  0  0  0  0  0  0
   -1.7725   -4.7286   -0.7773 H   0  0  0  0  0  0  0  0  0  0  0  0
   -3.0677   -2.9326    0.0641 H   0  0  0  0  0  0  0  0  0  0  0  0
   -4.2226   -2.6963   -1.2324 H   0  0  0  0  0  0  0  0  0  0  0  0
   -4.2198   -0.9041    0.6042 H   0  0  0  0  0  0  0  0  0  0  0  0
   -2.5825   -0.5066    0.1172 H   0  0  0  0  0  0  0  0  0  0  0  0
   -5.7487   -1.1826   -1.6253 H   0  0  0  0  0  0  0  0  0  0  0  0
   -5.6531    0.2752   -2.5940 H   0  0  0  0  0  0  0  0  0  0  0  0
   -7.1214    1.1563   -1.0388 H   0  0  0  0  0  0  0  0  0  0  0  0
   -6.6608   -0.0049    0.2178 H   0  0  0  0  0  0  0  0  0  0  0  0
   -5.7060    2.6754    0.0149 H   0  0  0  0  0  0  0  0  0  0  0  0
   -5.0952    1.4022    1.0838 H   0  0  0  0  0  0  0  0  0  0  0  0
   -4.1943    2.1218   -1.7394 H   0  0  0  0  0  0  0  0  0  0  0  0
   -3.0345    3.1747    0.1733 H   0  0  0  0  0  0  0  0  0  0  0  0
   -2.5026    1.5896    0.7530 H   0  0  0  0  0  0  0  0  0  0  0  0
    0.0482    3.0991   -1.5148 H   0  0  0  0  0  0  0  0  0  0  0  0
   -0.8299    3.8287   -0.1729 H   0  0  0  0  0  0  0  0  0  0  0  0
    2.7919   -5.0430    0.3087 H   0  0  0  0  0  0  0  0  0  0  0  0
    6.5277   -3.8839    2.1693 H   0  0  0  0  0  0  0  0  0  0  0  0
    6.6337   -1.3781    2.1214 H   0  0  0  0  0  0  0  0  0  0  0  0
    4.4131    0.4197   -1.2339 H   0  0  0  0  0  0  0  0  0  0  0  0
    3.9186    2.9712   -0.7572 H   0  0  0  0  0  0  0  0  0  0  0  0
    4.4707    4.5269    1.9510 H   0  0  0  0  0  0  0  0  0  0  0  0
    3.4405    3.6566    3.0971 H   0  0  0  0  0  0  0  0  0  0  0  0
    1.1967    3.9380    2.8887 H   0  0  0  0  0  0  0  0  0  0  0  0
    0.5096    4.5502    1.3950 H   0  0  0  0  0  0  0  0  0  0  0  0
  1  2  2  0
  2  3  1  0
  3  4  1  0
  4  5  1  0
  5  6  1  0
  6  7  1  0
  7  8  2  0
  8  9  1  0
  9 10  2  0
 10 11  1  0
 11 12  1  0
 12 13  1  0
 13 14  1  0
 14 15  1  0
 15 16  1  0
 16 17  1  0
 17 18  1  0
 18 19  1  0
 19 20  1  0
 20 21  1  0
 21 22  1  0
  8 23  1  0
 23 24  1  0
 24 25  1  0
 25 26  2  0
 26 27  1  0
 27 28  2  0
 28 29  1  0
 28 30  1  0
 30 31  2  0
 31 32  1  0
 32 33  2  0
 33 34  1  0
 33 35  1  0
 35 36  1  0
 36 37  1  0
 37  1  1  0
 22  2  1  0
 29 24  2  0
 34 30  1  0
 11  6  2  0
 19 15  1  0
  1 38  1  0
  3 39  1  0
  3 40  1  0
  5 41  1  0
  5 42  1  0
  7 43  1  0
  9 44  1  0
 10 45  1  0
 13 46  1  0
 13 47  1  0
 14 48  1  0
 14 49  1  0
 16 50  1  0
 16 51  1  0
 17 52  1  0
 17 53  1  0
 18 54  1  0
 18 55  1  0
 19 56  1  0
 20 57  1  0
 20 58  1  0
 22 59  1  0
 22 60  1  0
 23 61  1  0
 26 62  1  0
 27 63  1  0
 31 64  1  0
 32 65  1  0
 35 66  1  0
 35 67  1  0
 37 68  1  0
 37 69  1  0
M  END
>  <candidate_id>  (1) 
CAND_72609efe2c

>  <source_generator>  (1) 
v5_3_model_guided_macrocycle

>  <parent_mol_id>  (1) 
JAK2_522c241c10

>  <canonical_smiles>  (1) 
C1=C2/COCc3cc(ccc3OCCN3CCCC3COC2)Nc2nccc(n2)-c2ccc(s2)COC/1

>  <inchikey>  (1) 
JXBJDMGUBWPEMC-ZBKNUEDVSA-N

>  <valid_rdkit>  (1) 
True

>  <unique_flag>  (1) 
True

>  <novel_flag>  (1) 
True

>  <mw>  (1) 
520.655

>  <logp>  (1) 
4.7953

>  <tpsa>  (1) 
77.97

>  <hbd>  (1) 
1

>  <hba>  (1) 
9

>  <rotatable_bonds>  (1) 
0

>  <qed>  (1) 
0.424

>  <sa_score>  (1) 
4.598

>  <murcko_scaffold>  (1) 
C1=C2/COCc3cc(ccc3OCCN3CCCC3COC2)Nc2nccc(n2)-c2ccc(s2)COC/1

>  <max_ring_size>  (1) 
18

>  <has_macrocycle_12_20>  (1) 
True

>  <has_constrained_ring_8_11>  (1) 
False

>  <passes_basic_filters>  (1) 
True

>  <generation_notes>  (1) 
v5_3_model_guided_anchor_pair=1-15;anchor_scores=0.312,0.079;linker_length=3;target_ring=13;linker_prob=0.455;chemotype=oxa

$$$$
