CAND_f4705e122e
     RDKit          3D

 65 70  0  0  0  0  0  0  0  0999 V2000
    5.0475   -0.8061    0.5516 O   0  0  0  0  0  0  0  0  0  0  0  0
    3.8360   -0.7696    0.7150 C   0  0  0  0  0  0  0  0  0  0  0  0
    2.9468   -1.8000    0.4858 N   0  0  0  0  0  0  0  0  0  0  0  0
    3.2500   -3.0815    0.0487 C   0  0  0  0  0  0  0  0  0  0  0  0
    4.4843   -3.6258   -0.2022 C   0  0  0  0  0  0  0  0  0  0  0  0
    4.2532   -4.8344   -0.7929 N   0  0  0  0  0  0  0  0  0  0  0  0
    2.9501   -5.1300   -0.9314 N   0  0  0  0  0  0  0  0  0  0  0  0
    2.3272   -4.1002   -0.3487 C   0  0  0  0  0  0  0  0  0  0  0  0
    0.7656   -3.9897   -0.2112 C   0  0  0  0  0  0  0  0  0  0  0  0
   -0.1494   -4.5831   -0.9536 N   0  0  0  0  0  0  0  0  0  0  0  0
   -1.3011   -3.8599   -0.7311 C   0  0  0  0  0  0  0  0  0  0  0  0
   -2.5360   -3.8862   -1.3925 C   0  0  0  0  0  0  0  0  0  0  0  0
   -3.4974   -2.9166   -1.0566 C   0  0  0  0  0  0  0  0  0  0  0  0
   -3.2570   -1.9626   -0.0514 C   0  0  0  0  0  0  0  0  0  0  0  0
   -2.0725   -2.0192    0.7021 C   0  0  0  0  0  0  0  0  0  0  0  0
   -1.1153   -2.9417    0.2937 C   0  0  0  0  0  0  0  0  0  0  0  0
    0.1644   -3.1658    0.7042 N   0  0  0  0  0  0  0  0  0  0  0  0
   -4.2629   -0.8541    0.2175 C   0  0  0  0  0  0  0  0  0  0  0  0
   -3.6239    0.4698    0.4387 N   0  0  0  0  0  0  0  0  0  0  0  0
   -4.6406    1.4477    0.8887 C   0  0  0  0  0  0  0  0  0  0  0  0
   -5.3139    2.2748   -0.2207 C   0  0  0  0  0  0  0  0  0  0  0  0
   -5.2669    1.5971   -1.4738 O   0  0  0  0  0  0  0  0  0  0  0  0
   -3.9125    1.4143   -1.9125 C   0  0  0  0  0  0  0  0  0  0  0  0
   -2.9352    0.9657   -0.7850 C   0  0  0  0  0  0  0  0  0  0  0  0
   -1.9326    2.0872   -0.3890 C   0  0  0  0  0  0  0  0  0  0  0  0
   -0.8822    2.3403   -1.4771 C   0  0  0  0  0  0  0  0  0  0  0  0
    0.0551    3.8733   -1.1557 S   0  0  0  0  0  0  0  0  0  0  0  0
    1.3905    3.2667   -0.0659 C   0  0  0  0  0  0  0  0  0  0  0  0
    2.4820    2.5322   -0.8455 C   0  0  0  0  0  0  0  0  0  0  0  0
    3.8119    2.4359   -0.0801 C   0  0  0  0  0  0  0  0  0  0  0  0
    3.7296    1.6710    1.2323 C   0  0  0  0  0  0  0  0  0  0  0  0
    4.8385    1.9023    2.2369 C   0  0  0  0  0  0  0  0  0  0  0  0
    3.4782    2.4693    2.4975 C   0  0  0  0  0  0  0  0  0  0  0  0
    3.1444    0.3613    1.1350 N   0  0  0  0  0  0  0  0  0  0  0  0
    1.9843   -1.5205    0.4208 H   0  0  0  0  0  0  0  0  0  0  0  0
    5.4893   -3.2470   -0.0775 H   0  0  0  0  0  0  0  0  0  0  0  0
    4.9354   -5.4967   -1.1482 H   0  0  0  0  0  0  0  0  0  0  0  0
   -2.7106   -4.5980   -2.1919 H   0  0  0  0  0  0  0  0  0  0  0  0
   -4.4309   -2.8962   -1.6166 H   0  0  0  0  0  0  0  0  0  0  0  0
   -1.8808   -1.3073    1.4989 H   0  0  0  0  0  0  0  0  0  0  0  0
    0.6288   -2.7170    1.4774 H   0  0  0  0  0  0  0  0  0  0  0  0
   -4.8037   -1.1555    1.1244 H   0  0  0  0  0  0  0  0  0  0  0  0
   -4.9993   -0.8102   -0.5935 H   0  0  0  0  0  0  0  0  0  0  0  0
   -5.4147    0.9496    1.4869 H   0  0  0  0  0  0  0  0  0  0  0  0
   -4.1668    2.1447    1.5917 H   0  0  0  0  0  0  0  0  0  0  0  0
   -4.8379    3.2564   -0.3283 H   0  0  0  0  0  0  0  0  0  0  0  0
   -6.3654    2.4479    0.0304 H   0  0  0  0  0  0  0  0  0  0  0  0
   -3.9479    0.6416   -2.6882 H   0  0  0  0  0  0  0  0  0  0  0  0
   -3.5919    2.3446   -2.3917 H   0  0  0  0  0  0  0  0  0  0  0  0
   -2.3039    0.1712   -1.2017 H   0  0  0  0  0  0  0  0  0  0  0  0
   -1.4096    1.7968    0.5321 H   0  0  0  0  0  0  0  0  0  0  0  0
   -2.4802    3.0112   -0.1677 H   0  0  0  0  0  0  0  0  0  0  0  0
   -0.2023    1.4884   -1.5724 H   0  0  0  0  0  0  0  0  0  0  0  0
   -1.3622    2.4758   -2.4504 H   0  0  0  0  0  0  0  0  0  0  0  0
    0.9668    2.6372    0.7225 H   0  0  0  0  0  0  0  0  0  0  0  0
    1.8144    4.1541    0.4156 H   0  0  0  0  0  0  0  0  0  0  0  0
    2.1341    1.5289   -1.1177 H   0  0  0  0  0  0  0  0  0  0  0  0
    2.6910    3.0588   -1.7856 H   0  0  0  0  0  0  0  0  0  0  0  0
    4.5463    1.9351   -0.7238 H   0  0  0  0  0  0  0  0  0  0  0  0
    4.1979    3.4491    0.0914 H   0  0  0  0  0  0  0  0  0  0  0  0
    5.6400    2.5832    1.9722 H   0  0  0  0  0  0  0  0  0  0  0  0
    5.1711    1.0612    2.8357 H   0  0  0  0  0  0  0  0  0  0  0  0
    3.3675    3.5460    2.4307 H   0  0  0  0  0  0  0  0  0  0  0  0
    2.8972    2.0212    3.2954 H   0  0  0  0  0  0  0  0  0  0  0  0
    2.1879    0.2635    1.4380 H   0  0  0  0  0  0  0  0  0  0  0  0
  1  2  2  0
  2  3  1  0
  3  4  1  0
  4  5  2  0
  5  6  1  0
  6  7  1  0
  7  8  2  0
  8  9  1  0
  9 10  2  0
 10 11  1  0
 11 12  2  0
 12 13  1  0
 13 14  2  0
 14 15  1  0
 15 16  2  0
 16 17  1  0
 14 18  1  0
 18 19  1  0
 19 20  1  0
 20 21  1  0
 21 22  1  0
 22 23  1  0
 23 24  1  0
 24 25  1  0
 25 26  1  0
 26 27  1  0
 27 28  1  0
 28 29  1  0
 29 30  1  0
 30 31  1  0
 31 32  1  0
 32 33  1  0
 31 34  1  0
 34  2  1  0
  8  4  1  0
 17  9  1  0
 24 19  1  0
 33 31  1  0
 16 11  1  0
  3 35  1  0
  5 36  1  0
  6 37  1  0
 12 38  1  0
 13 39  1  0
 15 40  1  0
 17 41  1  0
 18 42  1  0
 18 43  1  0
 20 44  1  0
 20 45  1  0
 21 46  1  0
 21 47  1  0
 23 48  1  0
 23 49  1  0
 24 50  1  0
 25 51  1  0
 25 52  1  0
 26 53  1  0
 26 54  1  0
 28 55  1  0
 28 56  1  0
 29 57  1  0
 29 58  1  0
 30 59  1  0
 30 60  1  0
 32 61  1  0
 32 62  1  0
 33 63  1  0
 33 64  1  0
 34 65  1  0
M  END
>  <candidate_id>  (1) 
CAND_f4705e122e

>  <source_generator>  (1) 
v5_3_model_guided_macrocycle

>  <parent_mol_id>  (1) 
JAK2_dbe7510318

>  <canonical_smiles>  (1) 
O=C1Nc2c[nH]nc2-c2nc3ccc(cc3[nH]2)CN2CCOCC2CCSCCCC2(CC2)N1

>  <inchikey>  (1) 
VJOULSRJDRNRML-UHFFFAOYSA-N

>  <valid_rdkit>  (1) 
True

>  <unique_flag>  (1) 
True

>  <novel_flag>  (1) 
True

>  <mw>  (1) 
481.626

>  <logp>  (1) 
3.725

>  <tpsa>  (1) 
110.96

>  <hbd>  (1) 
4

>  <hba>  (1) 
6

>  <rotatable_bonds>  (1) 
0

>  <qed>  (1) 
0.3895

>  <sa_score>  (1) 
4.381

>  <murcko_scaffold>  (1) 
O=C1Nc2c[nH]nc2-c2nc3ccc(cc3[nH]2)CN2CCOCC2CCSCCCC2(CC2)N1

>  <max_ring_size>  (1) 
20

>  <has_macrocycle_12_20>  (1) 
True

>  <has_constrained_ring_8_11>  (1) 
False

>  <passes_basic_filters>  (1) 
True

>  <generation_notes>  (1) 
v5_3_model_guided_anchor_pair=25-16;anchor_scores=0.691,0.079;linker_length=6;target_ring=19;linker_prob=0.167;chemotype=thioether

$$$$
