CAND_c9a78f3f99
     RDKit          3D

 65 70  0  0  0  0  0  0  0  0999 V2000
    2.7851    0.7804    0.8023 O   0  0  0  0  0  0  0  0  0  0  0  0
    3.6490    0.5847   -0.0404 C   0  0  0  0  0  0  0  0  0  0  0  0
    4.3188    1.5535   -0.7385 N   0  0  0  0  0  0  0  0  0  0  0  0
    3.9985    2.8904   -0.9222 C   0  0  0  0  0  0  0  0  0  0  0  0
    4.9687    3.7203   -1.4533 C   0  0  0  0  0  0  0  0  0  0  0  0
    4.4020    4.9441   -1.6027 N   0  0  0  0  0  0  0  0  0  0  0  0
    3.1226    4.9777   -1.2503 N   0  0  0  0  0  0  0  0  0  0  0  0
    2.8454    3.7383   -0.8007 C   0  0  0  0  0  0  0  0  0  0  0  0
    1.3550    3.4687   -0.3374 C   0  0  0  0  0  0  0  0  0  0  0  0
    0.3622    4.3183   -0.5568 N   0  0  0  0  0  0  0  0  0  0  0  0
   -0.7763    3.6874   -0.1290 C   0  0  0  0  0  0  0  0  0  0  0  0
   -2.1137    4.0933   -0.2022 C   0  0  0  0  0  0  0  0  0  0  0  0
   -3.1042    3.2218    0.2749 C   0  0  0  0  0  0  0  0  0  0  0  0
   -2.7813    1.9760    0.8479 C   0  0  0  0  0  0  0  0  0  0  0  0
   -1.4316    1.6106    0.9959 C   0  0  0  0  0  0  0  0  0  0  0  0
   -0.4739    2.4649    0.4470 C   0  0  0  0  0  0  0  0  0  0  0  0
    0.8848    2.3630    0.3142 N   0  0  0  0  0  0  0  0  0  0  0  0
   -3.9191    1.0788    1.3163 C   0  0  0  0  0  0  0  0  0  0  0  0
   -3.6121   -0.3675    1.4124 N   0  0  0  0  0  0  0  0  0  0  0  0
   -4.7519   -1.0791    2.0230 C   0  0  0  0  0  0  0  0  0  0  0  0
   -6.0185   -1.1193    1.1423 C   0  0  0  0  0  0  0  0  0  0  0  0
   -5.7426   -1.1254   -0.2660 O   0  0  0  0  0  0  0  0  0  0  0  0
   -4.4930   -1.7582   -0.5479 C   0  0  0  0  0  0  0  0  0  0  0  0
   -3.3080   -0.9753    0.0825 C   0  0  0  0  0  0  0  0  0  0  0  0
   -2.0983   -1.9132    0.2656 C   0  0  0  0  0  0  0  0  0  0  0  0
   -1.3492   -2.1953   -1.0321 C   0  0  0  0  0  0  0  0  0  0  0  0
   -0.3642   -3.1854   -0.7392 O   0  0  0  0  0  0  0  0  0  0  0  0
    0.6626   -3.2867   -1.7182 C   0  0  0  0  0  0  0  0  0  0  0  0
    1.8219   -2.3296   -1.4324 C   0  0  0  0  0  0  0  0  0  0  0  0
    2.2347   -2.3324    0.0438 C   0  0  0  0  0  0  0  0  0  0  0  0
    3.6767   -1.8910    0.2643 C   0  0  0  0  0  0  0  0  0  0  0  0
    4.7148   -2.9890    0.4065 C   0  0  0  0  0  0  0  0  0  0  0  0
    4.2860   -2.2128    1.6132 C   0  0  0  0  0  0  0  0  0  0  0  0
    4.0917   -0.6762   -0.3915 N   0  0  0  0  0  0  0  0  0  0  0  0
    5.2319    1.2828   -1.0728 H   0  0  0  0  0  0  0  0  0  0  0  0
    5.9975    3.5517   -1.7360 H   0  0  0  0  0  0  0  0  0  0  0  0
    4.8205    5.7976   -1.9587 H   0  0  0  0  0  0  0  0  0  0  0  0
   -2.3682    5.0489   -0.6459 H   0  0  0  0  0  0  0  0  0  0  0  0
   -4.1455    3.5267    0.1869 H   0  0  0  0  0  0  0  0  0  0  0  0
   -1.1415    0.6831    1.4756 H   0  0  0  0  0  0  0  0  0  0  0  0
    1.4546    1.5994    0.6535 H   0  0  0  0  0  0  0  0  0  0  0  0
   -4.2012    1.4469    2.3116 H   0  0  0  0  0  0  0  0  0  0  0  0
   -4.7776    1.2391    0.6519 H   0  0  0  0  0  0  0  0  0  0  0  0
   -4.9949   -0.6657    3.0097 H   0  0  0  0  0  0  0  0  0  0  0  0
   -4.4336   -2.1109    2.2241 H   0  0  0  0  0  0  0  0  0  0  0  0
   -6.6121   -2.0086    1.3805 H   0  0  0  0  0  0  0  0  0  0  0  0
   -6.6455   -0.2433    1.3386 H   0  0  0  0  0  0  0  0  0  0  0  0
   -4.3775   -1.7891   -1.6365 H   0  0  0  0  0  0  0  0  0  0  0  0
   -4.5406   -2.7965   -0.1968 H   0  0  0  0  0  0  0  0  0  0  0  0
   -3.0257   -0.1888   -0.6277 H   0  0  0  0  0  0  0  0  0  0  0  0
   -1.3741   -1.4853    0.9703 H   0  0  0  0  0  0  0  0  0  0  0  0
   -2.4090   -2.8587    0.7302 H   0  0  0  0  0  0  0  0  0  0  0  0
   -0.8787   -1.2760   -1.3984 H   0  0  0  0  0  0  0  0  0  0  0  0
   -2.0179   -2.5885   -1.8042 H   0  0  0  0  0  0  0  0  0  0  0  0
    1.0392   -4.3145   -1.6705 H   0  0  0  0  0  0  0  0  0  0  0  0
    0.2627   -3.1377   -2.7280 H   0  0  0  0  0  0  0  0  0  0  0  0
    1.5320   -1.3087   -1.7091 H   0  0  0  0  0  0  0  0  0  0  0  0
    2.6657   -2.6031   -2.0769 H   0  0  0  0  0  0  0  0  0  0  0  0
    1.5655   -1.6740    0.6115 H   0  0  0  0  0  0  0  0  0  0  0  0
    2.0989   -3.3394    0.4595 H   0  0  0  0  0  0  0  0  0  0  0  0
    4.3963   -4.0231    0.3334 H   0  0  0  0  0  0  0  0  0  0  0  0
    5.7171   -2.8170    0.0317 H   0  0  0  0  0  0  0  0  0  0  0  0
    4.9832   -1.5030    2.0440 H   0  0  0  0  0  0  0  0  0  0  0  0
    3.6668   -2.7107    2.3515 H   0  0  0  0  0  0  0  0  0  0  0  0
    4.6691   -0.7689   -1.2147 H   0  0  0  0  0  0  0  0  0  0  0  0
  1  2  2  0
  2  3  1  0
  3  4  1  0
  4  5  2  0
  5  6  1  0
  6  7  1  0
  7  8  2  0
  8  9  1  0
  9 10  2  0
 10 11  1  0
 11 12  2  0
 12 13  1  0
 13 14  2  0
 14 15  1  0
 15 16  2  0
 16 17  1  0
 14 18  1  0
 18 19  1  0
 19 20  1  0
 20 21  1  0
 21 22  1  0
 22 23  1  0
 23 24  1  0
 24 25  1  0
 25 26  1  0
 26 27  1  0
 27 28  1  0
 28 29  1  0
 29 30  1  0
 30 31  1  0
 31 32  1  0
 32 33  1  0
 31 34  1  0
 34  2  1  0
  8  4  1  0
 17  9  1  0
 24 19  1  0
 33 31  1  0
 16 11  1  0
  3 35  1  0
  5 36  1  0
  6 37  1  0
 12 38  1  0
 13 39  1  0
 15 40  1  0
 17 41  1  0
 18 42  1  0
 18 43  1  0
 20 44  1  0
 20 45  1  0
 21 46  1  0
 21 47  1  0
 23 48  1  0
 23 49  1  0
 24 50  1  0
 25 51  1  0
 25 52  1  0
 26 53  1  0
 26 54  1  0
 28 55  1  0
 28 56  1  0
 29 57  1  0
 29 58  1  0
 30 59  1  0
 30 60  1  0
 32 61  1  0
 32 62  1  0
 33 63  1  0
 33 64  1  0
 34 65  1  0
M  END
>  <candidate_id>  (1) 
CAND_c9a78f3f99

>  <source_generator>  (1) 
v5_3_model_guided_macrocycle

>  <parent_mol_id>  (1) 
JAK2_dbe7510318

>  <canonical_smiles>  (1) 
O=C1Nc2c[nH]nc2-c2nc3ccc(cc3[nH]2)CN2CCOCC2CCOCCCC2(CC2)N1

>  <inchikey>  (1) 
SIVADZRFAMKRHQ-UHFFFAOYSA-N

>  <valid_rdkit>  (1) 
True

>  <unique_flag>  (1) 
True

>  <novel_flag>  (1) 
True

>  <mw>  (1) 
465.558

>  <logp>  (1) 
3.0084

>  <tpsa>  (1) 
120.19

>  <hbd>  (1) 
4

>  <hba>  (1) 
6

>  <rotatable_bonds>  (1) 
0

>  <qed>  (1) 
0.4051

>  <sa_score>  (1) 
4.292

>  <murcko_scaffold>  (1) 
O=C1Nc2c[nH]nc2-c2nc3ccc(cc3[nH]2)CN2CCOCC2CCOCCCC2(CC2)N1

>  <max_ring_size>  (1) 
20

>  <has_macrocycle_12_20>  (1) 
True

>  <has_constrained_ring_8_11>  (1) 
False

>  <passes_basic_filters>  (1) 
True

>  <generation_notes>  (1) 
v5_3_model_guided_anchor_pair=25-16;anchor_scores=0.691,0.079;linker_length=6;target_ring=19;linker_prob=0.167;chemotype=oxa

$$$$
