CAND_4ea78847f9
     RDKit          3D

 57 61  0  0  0  0  0  0  0  0999 V2000
   -4.9473   -1.1362   -0.5074 C   0  0  0  0  0  0  0  0  0  0  0  0
   -3.8997    0.0080   -0.4274 C   0  0  0  0  0  0  0  0  0  0  0  0
   -3.4666    0.2864   -1.8714 C   0  0  0  0  0  0  0  0  0  0  0  0
   -4.6296    1.2578    0.1095 C   0  0  0  0  0  0  0  0  0  0  0  0
   -2.7815   -0.4238    0.5789 C   0  0  1  0  0  0  0  0  0  0  0  0
   -1.9330   -1.5804    0.2660 N   0  0  0  0  0  0  0  0  0  0  0  0
   -0.9151   -1.5793   -0.6549 C   0  0  0  0  0  0  0  0  0  0  0  0
   -0.7833   -0.7355   -1.5285 O   0  0  0  0  0  0  0  0  0  0  0  0
    0.0965   -2.5912   -0.4113 C   0  0  0  0  0  0  0  0  0  0  0  0
   -0.0573   -3.9414   -0.1283 C   0  0  0  0  0  0  0  0  0  0  0  0
    1.1945   -4.4733    0.1110 N   0  0  0  0  0  0  0  0  0  0  0  0
    2.1341   -3.4799    0.0601 C   0  0  0  0  0  0  0  0  0  0  0  0
    3.4423   -3.5850    0.3685 N   0  0  0  0  0  0  0  0  0  0  0  0
    4.0459   -2.3586    0.3184 C   0  0  0  0  0  0  0  0  0  0  0  0
    3.4330   -1.1529   -0.0531 C   0  0  0  0  0  0  0  0  0  0  0  0
    2.1401   -1.1440   -0.4355 N   0  0  0  0  0  0  0  0  0  0  0  0
    1.4839   -2.3186   -0.3214 C   0  0  0  0  0  0  0  0  0  0  0  0
    4.1064    0.2145    0.0622 C   0  0  0  0  0  0  0  0  0  0  0  0
    4.5118    0.9210   -1.2262 C   0  0  0  0  0  0  0  0  0  0  0  0
    5.5721    0.3701   -0.3291 C   0  0  0  0  0  0  0  0  0  0  0  0
    3.5662    1.0700    1.2110 C   0  0  0  0  0  0  0  0  0  0  0  0
    2.6879    2.1346    0.7927 O   0  0  0  0  0  0  0  0  0  0  0  0
    1.4832    1.6727    0.1652 C   0  0  0  0  0  0  0  0  0  0  0  0
    0.3455    2.6912    0.3024 C   0  0  0  0  0  0  0  0  0  0  0  0
    0.7208    4.0278   -0.0980 C   0  0  0  0  0  0  0  0  0  0  0  0
    0.9741    5.1115   -0.4292 N   0  0  0  0  0  0  0  0  0  0  0  0
   -0.9720    2.1947   -0.3608 C   0  0  0  0  0  0  0  0  0  0  0  0
   -1.3188    1.6600    0.9354 N   0  0  0  0  0  0  0  0  0  0  0  0
   -0.4215    2.5841    1.6389 C   0  0  0  0  0  0  0  0  0  0  0  0
   -1.9896    0.5985    1.4526 C   0  0  0  0  0  0  0  0  0  0  0  0
   -1.8788    0.3624    2.6664 O   0  0  0  0  0  0  0  0  0  0  0  0
   -5.3895   -1.3464    0.4732 H   0  0  0  0  0  0  0  0  0  0  0  0
   -5.7701   -0.8765   -1.1839 H   0  0  0  0  0  0  0  0  0  0  0  0
   -4.4946   -2.0628   -0.8780 H   0  0  0  0  0  0  0  0  0  0  0  0
   -2.7427    1.0952   -1.9437 H   0  0  0  0  0  0  0  0  0  0  0  0
   -4.3265    0.5941   -2.4803 H   0  0  0  0  0  0  0  0  0  0  0  0
   -3.0589   -0.6064   -2.3538 H   0  0  0  0  0  0  0  0  0  0  0  0
   -5.5068    1.4988   -0.5024 H   0  0  0  0  0  0  0  0  0  0  0  0
   -3.9808    2.1389    0.1028 H   0  0  0  0  0  0  0  0  0  0  0  0
   -4.9799    1.1027    1.1363 H   0  0  0  0  0  0  0  0  0  0  0  0
   -3.3967   -0.8667    1.3834 H   0  0  0  0  0  0  0  0  0  0  0  0
   -1.9002   -2.3016    0.9753 H   0  0  0  0  0  0  0  0  0  0  0  0
   -0.9375   -4.5690   -0.0782 H   0  0  0  0  0  0  0  0  0  0  0  0
    1.4025   -5.4302    0.3598 H   0  0  0  0  0  0  0  0  0  0  0  0
    5.0873   -2.3666    0.6284 H   0  0  0  0  0  0  0  0  0  0  0  0
    4.3196    0.4194   -2.1688 H   0  0  0  0  0  0  0  0  0  0  0  0
    4.4024    1.9993   -1.2813 H   0  0  0  0  0  0  0  0  0  0  0  0
    6.1293   -0.4850   -0.6950 H   0  0  0  0  0  0  0  0  0  0  0  0
    6.1856    1.0822    0.2131 H   0  0  0  0  0  0  0  0  0  0  0  0
    4.4017    1.5520    1.7308 H   0  0  0  0  0  0  0  0  0  0  0  0
    3.0516    0.4600    1.9640 H   0  0  0  0  0  0  0  0  0  0  0  0
    1.6960    1.4902   -0.8939 H   0  0  0  0  0  0  0  0  0  0  0  0
    1.1679    0.7381    0.6376 H   0  0  0  0  0  0  0  0  0  0  0  0
   -0.8131    1.4875   -1.1668 H   0  0  0  0  0  0  0  0  0  0  0  0
   -1.6736    2.9701   -0.6884 H   0  0  0  0  0  0  0  0  0  0  0  0
    0.1304    2.1367    2.4706 H   0  0  0  0  0  0  0  0  0  0  0  0
   -0.9474    3.4814    1.9825 H   0  0  0  0  0  0  0  0  0  0  0  0
  1  2  1  0
  2  3  1  0
  2  4  1  0
  2  5  1  0
  5  6  1  0
  6  7  1  0
  7  8  2  0
  7  9  1  0
  9 10  2  0
 10 11  1  0
 11 12  1  0
 12 13  2  0
 13 14  1  0
 14 15  2  0
 15 16  1  0
 16 17  2  0
 15 18  1  0
 18 19  1  0
 19 20  1  0
 18 21  1  0
 21 22  1  0
 22 23  1  0
 23 24  1  0
 24 25  1  0
 25 26  3  0
 24 27  1  0
 27 28  1  0
 28 29  1  0
 28 30  1  0
 30 31  2  0
 30  5  1  0
 17  9  1  0
 20 18  1  0
 29 24  1  0
 17 12  1  0
  1 32  1  0
  1 33  1  0
  1 34  1  0
  3 35  1  0
  3 36  1  0
  3 37  1  0
  4 38  1  0
  4 39  1  0
  4 40  1  0
  5 41  1  1
  6 42  1  0
 10 43  1  0
 11 44  1  0
 14 45  1  0
 19 46  1  0
 19 47  1  0
 20 48  1  0
 20 49  1  0
 21 50  1  0
 21 51  1  0
 23 52  1  0
 23 53  1  0
 27 54  1  0
 27 55  1  0
 29 56  1  0
 29 57  1  0
M  END
>  <candidate_id>  (1) 
CAND_4ea78847f9

>  <source_generator>  (1) 
v5_3_model_guided_macrocycle

>  <parent_mol_id>  (1) 
JAK2_1a53985c87

>  <canonical_smiles>  (1) 
CC(C)(C)[C@H]1NC(=O)c2c[nH]c3ncc(nc23)C2(CC2)COCC2(C#N)CN(C2)C1=O

>  <inchikey>  (1) 
LLFMNXCGHFDIIM-INIZCTEOSA-N

>  <valid_rdkit>  (1) 
True

>  <unique_flag>  (1) 
True

>  <novel_flag>  (1) 
True

>  <mw>  (1) 
422.489

>  <logp>  (1) 
1.5164

>  <tpsa>  (1) 
124.0

>  <hbd>  (1) 
2

>  <hba>  (1) 
6

>  <rotatable_bonds>  (1) 
0

>  <qed>  (1) 
0.6633

>  <sa_score>  (1) 
4.053

>  <murcko_scaffold>  (1) 
O=C1NCC(=O)N2CC(COCC3(CC3)c3cnc4[nH]cc1c4n3)C2

>  <max_ring_size>  (1) 
15

>  <has_macrocycle_12_20>  (1) 
True

>  <has_constrained_ring_8_11>  (1) 
False

>  <passes_basic_filters>  (1) 
True

>  <generation_notes>  (1) 
v5_3_model_guided_anchor_pair=15-24;anchor_scores=0.691,0.691;linker_length=3;target_ring=14;linker_prob=0.291;chemotype=oxa

$$$$
