CAND_67bc1f8ccd
     RDKit          3D

 70 75  0  0  0  0  0  0  0  0999 V2000
    0.4065    1.3856    2.0481 C   0  0  0  0  0  0  0  0  0  0  0  0
    0.0071    2.5953    1.5865 C   0  0  0  0  0  0  0  0  0  0  0  0
   -1.2206    2.8932    0.7249 C   0  0  0  0  0  0  0  0  0  0  0  0
   -1.9845    1.7425    0.2480 N   0  0  0  0  0  0  0  0  0  0  0  0
   -3.2932    2.1201   -0.2992 C   0  0  0  0  0  0  0  0  0  0  0  0
   -4.1564    0.8794   -0.6699 C   0  0  0  0  0  0  0  0  0  0  0  0
   -5.5357    1.3240   -1.1796 C   0  0  0  0  0  0  0  0  0  0  0  0
   -5.8356    0.3839   -2.3258 C   0  0  0  0  0  0  0  0  0  0  0  0
   -4.4600    0.1488   -2.9106 C   0  0  0  0  0  0  0  0  0  0  0  0
   -3.5554    0.0399   -1.7519 N   0  0  0  0  0  0  0  0  0  0  0  0
   -3.4166   -1.3814   -1.3424 C   0  0  0  0  0  0  0  0  0  0  0  0
   -2.2826   -1.5863   -0.3313 C   0  0  0  0  0  0  0  0  0  0  0  0
   -2.0855   -2.9825   -0.0343 O   0  0  0  0  0  0  0  0  0  0  0  0
   -0.7425   -3.2746   -0.0352 C   0  0  0  0  0  0  0  0  0  0  0  0
   -0.2681   -4.0005   -1.1321 C   0  0  0  0  0  0  0  0  0  0  0  0
    1.1014   -4.2383   -1.2829 C   0  0  0  0  0  0  0  0  0  0  0  0
    2.0118   -3.7398   -0.3493 C   0  0  0  0  0  0  0  0  0  0  0  0
    1.5089   -3.0680    0.7762 C   0  0  0  0  0  0  0  0  0  0  0  0
    0.1337   -2.8563    0.9742 C   0  0  0  0  0  0  0  0  0  0  0  0
   -0.3115   -2.2250    2.2726 C   0  0  0  0  0  0  0  0  0  0  0  0
    0.3379   -0.9721    2.5365 O   0  0  0  0  0  0  0  0  0  0  0  0
   -0.2654    0.0800    1.7860 C   0  0  0  0  0  0  0  0  0  0  0  0
    3.3874   -3.8258   -0.5897 N   0  0  0  0  0  0  0  0  0  0  0  0
    4.3574   -2.8539   -0.3601 C   0  0  0  0  0  0  0  0  0  0  0  0
    5.6423   -3.2362   -0.3840 N   0  0  0  0  0  0  0  0  0  0  0  0
    6.5650   -2.2826   -0.1372 C   0  0  0  0  0  0  0  0  0  0  0  0
    6.2623   -0.9633    0.0973 C   0  0  0  0  0  0  0  0  0  0  0  0
    4.9244   -0.6629    0.0521 C   0  0  0  0  0  0  0  0  0  0  0  0
    3.9758   -1.5851   -0.1758 N   0  0  0  0  0  0  0  0  0  0  0  0
    4.3911    0.6884    0.1786 C   0  0  0  0  0  0  0  0  0  0  0  0
    3.6590    1.3973   -0.7540 C   0  0  0  0  0  0  0  0  0  0  0  0
    3.2037    2.6482   -0.2526 C   0  0  0  0  0  0  0  0  0  0  0  0
    3.5612    2.8416    1.0673 C   0  0  0  0  0  0  0  0  0  0  0  0
    4.5522    1.5617    1.6394 S   0  0  0  0  0  0  0  0  0  0  0  0
    3.1817    3.9704    1.9732 C   0  0  0  0  0  0  0  0  0  0  0  0
    1.9736    3.6328    2.6589 O   0  0  0  0  0  0  0  0  0  0  0  0
    0.7809    3.8687    1.9105 C   0  0  0  0  0  0  0  0  0  0  0  0
    1.3027    1.3145    2.6602 H   0  0  0  0  0  0  0  0  0  0  0  0
   -1.8754    3.5349    1.3289 H   0  0  0  0  0  0  0  0  0  0  0  0
   -0.9029    3.4796   -0.1465 H   0  0  0  0  0  0  0  0  0  0  0  0
   -1.4645    1.2832   -0.5026 H   0  0  0  0  0  0  0  0  0  0  0  0
   -3.1521    2.7541   -1.1838 H   0  0  0  0  0  0  0  0  0  0  0  0
   -3.8472    2.7066    0.4443 H   0  0  0  0  0  0  0  0  0  0  0  0
   -4.3127    0.2888    0.2427 H   0  0  0  0  0  0  0  0  0  0  0  0
   -5.5117    2.3557   -1.5514 H   0  0  0  0  0  0  0  0  0  0  0  0
   -6.3014    1.2643   -0.3996 H   0  0  0  0  0  0  0  0  0  0  0  0
   -6.2689   -0.5512   -1.9525 H   0  0  0  0  0  0  0  0  0  0  0  0
   -6.5300    0.8214   -3.0489 H   0  0  0  0  0  0  0  0  0  0  0  0
   -4.4321   -0.7167   -3.5812 H   0  0  0  0  0  0  0  0  0  0  0  0
   -4.1549    1.0201   -3.5038 H   0  0  0  0  0  0  0  0  0  0  0  0
   -3.1708   -1.9918   -2.2215 H   0  0  0  0  0  0  0  0  0  0  0  0
   -4.3549   -1.7901   -0.9462 H   0  0  0  0  0  0  0  0  0  0  0  0
   -1.3770   -1.1295   -0.7505 H   0  0  0  0  0  0  0  0  0  0  0  0
   -2.5401   -1.0928    0.6081 H   0  0  0  0  0  0  0  0  0  0  0  0
   -0.9622   -4.3442   -1.8940 H   0  0  0  0  0  0  0  0  0  0  0  0
    1.4544   -4.7583   -2.1689 H   0  0  0  0  0  0  0  0  0  0  0  0
    2.2038   -2.6925    1.5277 H   0  0  0  0  0  0  0  0  0  0  0  0
   -1.3989   -2.1164    2.3434 H   0  0  0  0  0  0  0  0  0  0  0  0
   -0.0270   -2.9046    3.0851 H   0  0  0  0  0  0  0  0  0  0  0  0
   -0.1442   -0.1472    0.7257 H   0  0  0  0  0  0  0  0  0  0  0  0
   -1.3158    0.1399    2.0845 H   0  0  0  0  0  0  0  0  0  0  0  0
    3.7671   -4.6739   -0.9744 H   0  0  0  0  0  0  0  0  0  0  0  0
    7.5952   -2.6274   -0.1408 H   0  0  0  0  0  0  0  0  0  0  0  0
    7.0247   -0.2190    0.2750 H   0  0  0  0  0  0  0  0  0  0  0  0
    3.4307    1.0104   -1.7401 H   0  0  0  0  0  0  0  0  0  0  0  0
    2.5889    3.3396   -0.8148 H   0  0  0  0  0  0  0  0  0  0  0  0
    3.0753    4.9160    1.4288 H   0  0  0  0  0  0  0  0  0  0  0  0
    3.9546    4.1282    2.7336 H   0  0  0  0  0  0  0  0  0  0  0  0
    0.9915    4.4226    0.9877 H   0  0  0  0  0  0  0  0  0  0  0  0
    0.1440    4.5083    2.5323 H   0  0  0  0  0  0  0  0  0  0  0  0
  1  2  2  0
  2  3  1  0
  3  4  1  0
  4  5  1  0
  5  6  1  0
  6  7  1  0
  7  8  1  0
  8  9  1  0
  9 10  1  0
 10 11  1  0
 11 12  1  0
 12 13  1  0
 13 14  1  0
 14 15  2  0
 15 16  1  0
 16 17  2  0
 17 18  1  0
 18 19  2  0
 19 20  1  0
 20 21  1  0
 21 22  1  0
 17 23  1  0
 23 24  1  0
 24 25  2  0
 25 26  1  0
 26 27  2  0
 27 28  1  0
 28 29  2  0
 28 30  1  0
 30 31  2  0
 31 32  1  0
 32 33  2  0
 33 34  1  0
 33 35  1  0
 35 36  1  0
 36 37  1  0
 22  1  1  0
 29 24  1  0
 34 30  1  0
 37  2  1  0
 10  6  1  0
 19 14  1  0
  1 38  1  0
  3 39  1  0
  3 40  1  0
  4 41  1  0
  5 42  1  0
  5 43  1  0
  6 44  1  0
  7 45  1  0
  7 46  1  0
  8 47  1  0
  8 48  1  0
  9 49  1  0
  9 50  1  0
 11 51  1  0
 11 52  1  0
 12 53  1  0
 12 54  1  0
 15 55  1  0
 16 56  1  0
 18 57  1  0
 20 58  1  0
 20 59  1  0
 22 60  1  0
 22 61  1  0
 23 62  1  0
 26 63  1  0
 27 64  1  0
 31 65  1  0
 32 66  1  0
 35 67  1  0
 35 68  1  0
 37 69  1  0
 37 70  1  0
M  END
>  <candidate_id>  (1) 
CAND_67bc1f8ccd

>  <source_generator>  (1) 
v5_3_model_guided_macrocycle

>  <parent_mol_id>  (1) 
JAK2_522c241c10

>  <canonical_smiles>  (1) 
C1=C2\CNCC3CCCN3CCOc3ccc(cc3COC/1)Nc1nccc(n1)-c1ccc(s1)COC2

>  <inchikey>  (1) 
RTPPMXQABSJKCN-DNTJNYDQSA-N

>  <valid_rdkit>  (1) 
True

>  <unique_flag>  (1) 
True

>  <novel_flag>  (1) 
True

>  <mw>  (1) 
519.671

>  <logp>  (1) 
4.3683

>  <tpsa>  (1) 
80.77

>  <hbd>  (1) 
2

>  <hba>  (1) 
9

>  <rotatable_bonds>  (1) 
0

>  <qed>  (1) 
0.4241

>  <sa_score>  (1) 
4.593

>  <murcko_scaffold>  (1) 
C1=C2\CNCC3CCCN3CCOc3ccc(cc3COC/1)Nc1nccc(n1)-c1ccc(s1)COC2

>  <max_ring_size>  (1) 
18

>  <has_macrocycle_12_20>  (1) 
True

>  <has_constrained_ring_8_11>  (1) 
False

>  <passes_basic_filters>  (1) 
True

>  <generation_notes>  (1) 
v5_3_model_guided_anchor_pair=0-15;anchor_scores=0.312,0.079;linker_length=3;target_ring=14;linker_prob=0.414;chemotype=aza

$$$$
