CAND_6d30b04ba5
     RDKit          3D

 55 60  0  0  0  0  0  0  0  0999 V2000
    7.8135    0.0235    2.2130 N   0  0  0  0  0  0  0  0  0  0  0  0
    6.8771    0.2411    1.5635 C   0  0  0  0  0  0  0  0  0  0  0  0
    5.7012    0.5124    0.7385 C   0  0  1  0  0  0  0  0  0  0  0  0
    5.7510   -0.1963   -0.6158 C   0  0  0  0  0  0  0  0  0  0  0  0
    4.2881   -0.2326   -1.0359 C   0  0  0  0  0  0  0  0  0  0  0  0
    3.5519   -0.2985    0.2157 N   0  0  0  0  0  0  0  0  0  0  0  0
    2.1941   -0.4804    0.3843 C   0  0  0  0  0  0  0  0  0  0  0  0
    1.6960   -0.4895    1.5152 O   0  0  0  0  0  0  0  0  0  0  0  0
    1.3171   -0.6600   -0.8877 C   0  0  2  0  0  0  0  0  0  0  0  0
    0.2888    0.3543   -0.8859 N   0  0  0  0  0  0  0  0  0  0  0  0
    0.5298    1.6779   -1.1554 C   0  0  0  0  0  0  0  0  0  0  0  0
    1.6129    2.1005   -1.5470 O   0  0  0  0  0  0  0  0  0  0  0  0
   -0.6114    2.5417   -0.8802 C   0  0  0  0  0  0  0  0  0  0  0  0
   -0.6472    3.9273   -0.9644 C   0  0  0  0  0  0  0  0  0  0  0  0
   -1.8839    4.3592   -0.5383 N   0  0  0  0  0  0  0  0  0  0  0  0
   -2.6452    3.2834   -0.1745 C   0  0  0  0  0  0  0  0  0  0  0  0
   -3.8883    3.3103    0.3422 N   0  0  0  0  0  0  0  0  0  0  0  0
   -4.3233    2.0422    0.6056 C   0  0  0  0  0  0  0  0  0  0  0  0
   -3.6186    0.8532    0.3542 C   0  0  0  0  0  0  0  0  0  0  0  0
   -2.3750    0.9007   -0.1777 N   0  0  0  0  0  0  0  0  0  0  0  0
   -1.8941    2.1463   -0.4180 C   0  0  0  0  0  0  0  0  0  0  0  0
   -4.1741   -0.5358    0.6669 C   0  0  0  0  0  0  0  0  0  0  0  0
   -5.6771   -0.7982    0.6588 C   0  0  0  0  0  0  0  0  0  0  0  0
   -4.8469   -1.2758   -0.4879 C   0  0  0  0  0  0  0  0  0  0  0  0
   -3.3038   -1.3672    1.6080 C   0  0  0  0  0  0  0  0  0  0  0  0
   -2.4594   -2.2365    0.8464 O   0  0  0  0  0  0  0  0  0  0  0  0
   -1.0667   -1.9907    1.0391 C   0  0  0  0  0  0  0  0  0  0  0  0
   -0.3190   -2.6871   -0.0593 C   0  0  0  0  0  0  0  0  0  0  0  0
   -0.6085   -2.3829   -1.5144 C   0  0  0  0  0  0  0  0  0  0  0  0
    0.7606   -2.0680   -0.9524 C   0  0  0  0  0  0  0  0  0  0  0  0
    4.4234   -0.0466    1.3533 C   0  0  0  0  0  0  0  0  0  0  0  0
    5.5893    1.5920    0.5758 H   0  0  0  0  0  0  0  0  0  0  0  0
    6.1334   -1.2200   -0.5088 H   0  0  0  0  0  0  0  0  0  0  0  0
    6.3820    0.3197   -1.3460 H   0  0  0  0  0  0  0  0  0  0  0  0
    4.0585   -1.0940   -1.6693 H   0  0  0  0  0  0  0  0  0  0  0  0
    3.9997    0.6869   -1.5552 H   0  0  0  0  0  0  0  0  0  0  0  0
    1.9083   -0.4944   -1.7916 H   0  0  0  0  0  0  0  0  0  0  0  0
   -0.6472    0.1047   -0.5842 H   0  0  0  0  0  0  0  0  0  0  0  0
    0.1135    4.6362   -1.2661 H   0  0  0  0  0  0  0  0  0  0  0  0
   -2.1913    5.3187   -0.4658 H   0  0  0  0  0  0  0  0  0  0  0  0
   -5.3142    2.0062    1.0494 H   0  0  0  0  0  0  0  0  0  0  0  0
   -6.3767    0.0038    0.4551 H   0  0  0  0  0  0  0  0  0  0  0  0
   -6.0789   -1.5498    1.3308 H   0  0  0  0  0  0  0  0  0  0  0  0
   -4.6712   -2.3422   -0.5857 H   0  0  0  0  0  0  0  0  0  0  0  0
   -4.9401   -0.7672   -1.4413 H   0  0  0  0  0  0  0  0  0  0  0  0
   -3.9365   -2.0104    2.2298 H   0  0  0  0  0  0  0  0  0  0  0  0
   -2.7344   -0.7298    2.2964 H   0  0  0  0  0  0  0  0  0  0  0  0
   -0.8664   -0.9213    1.0762 H   0  0  0  0  0  0  0  0  0  0  0  0
   -0.7709   -2.4120    2.0065 H   0  0  0  0  0  0  0  0  0  0  0  0
   -0.2080   -3.7396    0.1890 H   0  0  0  0  0  0  0  0  0  0  0  0
   -0.6991   -3.2258   -2.1920 H   0  0  0  0  0  0  0  0  0  0  0  0
   -1.3129   -1.5900   -1.7373 H   0  0  0  0  0  0  0  0  0  0  0  0
    1.5645   -2.7481   -1.2295 H   0  0  0  0  0  0  0  0  0  0  0  0
    3.9560    0.6506    2.0569 H   0  0  0  0  0  0  0  0  0  0  0  0
    4.5796   -1.0024    1.8684 H   0  0  0  0  0  0  0  0  0  0  0  0
  1  2  3  0
  2  3  1  0
  3  4  1  0
  4  5  1  0
  5  6  1  0
  6  7  1  0
  7  8  2  0
  7  9  1  0
  9 10  1  0
 10 11  1  0
 11 12  2  0
 11 13  1  0
 13 14  2  0
 14 15  1  0
 15 16  1  0
 16 17  2  0
 17 18  1  0
 18 19  2  0
 19 20  1  0
 20 21  2  0
 19 22  1  0
 22 23  1  0
 23 24  1  0
 22 25  1  0
 25 26  1  0
 26 27  1  0
 27 28  1  0
 28 29  1  0
 29 30  1  0
  6 31  1  0
 31  3  1  0
 30  9  1  0
 21 13  1  0
 24 22  1  0
 30 28  1  0
 21 16  1  0
  3 32  1  6
  4 33  1  0
  4 34  1  0
  5 35  1  0
  5 36  1  0
  9 37  1  6
 10 38  1  0
 14 39  1  0
 15 40  1  0
 18 41  1  0
 23 42  1  0
 23 43  1  0
 24 44  1  0
 24 45  1  0
 25 46  1  0
 25 47  1  0
 27 48  1  0
 27 49  1  0
 28 50  1  0
 29 51  1  0
 29 52  1  0
 30 53  1  0
 31 54  1  0
 31 55  1  0
M  END
>  <candidate_id>  (1) 
CAND_6d30b04ba5

>  <source_generator>  (1) 
v5_3_model_guided_macrocycle

>  <parent_mol_id>  (1) 
JAK2_9dcdbe0544

>  <canonical_smiles>  (1) 
N#C[C@H]1CCN(C(=O)[C@@H]2NC(=O)c3c[nH]c4ncc(nc34)C3(CC3)COCC3CC32)C1

>  <inchikey>  (1) 
FYCAHTMFAMULSV-PNDQRGPWSA-N

>  <valid_rdkit>  (1) 
True

>  <unique_flag>  (1) 
True

>  <novel_flag>  (1) 
True

>  <mw>  (1) 
420.473

>  <logp>  (1) 
1.1263

>  <tpsa>  (1) 
124.0

>  <hbd>  (1) 
2

>  <hba>  (1) 
6

>  <rotatable_bonds>  (1) 
1

>  <qed>  (1) 
0.7126

>  <sa_score>  (1) 
4.917

>  <murcko_scaffold>  (1) 
O=C1N[C@@H](C(=O)N2CCCC2)C2CC2COCC2(CC2)c2cnc3[nH]cc1c3n2

>  <max_ring_size>  (1) 
13

>  <has_macrocycle_12_20>  (1) 
True

>  <has_constrained_ring_8_11>  (1) 
False

>  <passes_basic_filters>  (1) 
True

>  <generation_notes>  (1) 
v5_3_model_guided_anchor_pair=19-25;anchor_scores=0.691,0.079;linker_length=3;target_ring=12;linker_prob=0.278;chemotype=oxa

$$$$
