CAND_5a164fb16c
     RDKit          3D

 55 60  0  0  0  0  0  0  0  0999 V2000
    6.8972   -0.5529   -3.4962 N   0  0  0  0  0  0  0  0  0  0  0  0
    6.3400   -0.3489   -2.4993 C   0  0  0  0  0  0  0  0  0  0  0  0
    5.6287   -0.0990   -1.2466 C   0  0  2  0  0  0  0  0  0  0  0  0
    5.9358   -1.1423   -0.1721 C   0  0  0  0  0  0  0  0  0  0  0  0
    4.7392   -1.0268    0.7586 C   0  0  0  0  0  0  0  0  0  0  0  0
    3.6356   -0.6796   -0.1168 N   0  0  0  0  0  0  0  0  0  0  0  0
    2.3310   -0.7096    0.3387 C   0  0  0  0  0  0  0  0  0  0  0  0
    2.0873   -1.0045    1.5131 O   0  0  0  0  0  0  0  0  0  0  0  0
    1.2020   -0.3734   -0.6737 C   0  0  2  0  0  0  0  0  0  0  0  0
    0.3522    0.6432   -0.0960 N   0  0  0  0  0  0  0  0  0  0  0  0
    0.7074    1.9657   -0.0232 C   0  0  0  0  0  0  0  0  0  0  0  0
    1.7916    2.3923   -0.4089 O   0  0  0  0  0  0  0  0  0  0  0  0
   -0.3217    2.8152    0.5564 C   0  0  0  0  0  0  0  0  0  0  0  0
   -0.1654    4.1200    1.0052 C   0  0  0  0  0  0  0  0  0  0  0  0
   -1.3710    4.5555    1.5070 N   0  0  0  0  0  0  0  0  0  0  0  0
   -2.3071    3.5687    1.3714 C   0  0  0  0  0  0  0  0  0  0  0  0
   -3.5976    3.6255    1.7477 N   0  0  0  0  0  0  0  0  0  0  0  0
   -4.2318    2.4522    1.4490 C   0  0  0  0  0  0  0  0  0  0  0  0
   -3.6652    1.3260    0.8222 C   0  0  0  0  0  0  0  0  0  0  0  0
   -2.3572    1.3484    0.4713 N   0  0  0  0  0  0  0  0  0  0  0  0
   -1.6862    2.4882    0.7687 C   0  0  0  0  0  0  0  0  0  0  0  0
   -4.4631    0.0473    0.4723 C   0  0  0  0  0  0  0  0  0  0  0  0
   -5.8999    0.2143   -0.0180 C   0  0  0  0  0  0  0  0  0  0  0  0
   -5.6453   -0.3769    1.3358 C   0  0  0  0  0  0  0  0  0  0  0  0
   -3.6508   -1.0615   -0.2009 C   0  0  0  0  0  0  0  0  0  0  0  0
   -2.6789   -1.9881    1.0263 S   0  0  0  0  0  0  0  0  0  0  0  0
   -1.6572   -2.9932   -0.0912 C   0  0  0  0  0  0  0  0  0  0  0  0
   -0.2424   -2.5068   -0.0335 C   0  0  0  0  0  0  0  0  0  0  0  0
    0.7610   -2.9698   -1.0680 C   0  0  0  0  0  0  0  0  0  0  0  0
    0.3049   -1.5309   -1.0611 C   0  0  0  0  0  0  0  0  0  0  0  0
    4.1155   -0.2216   -1.4139 C   0  0  0  0  0  0  0  0  0  0  0  0
    5.8748    0.8984   -0.8604 H   0  0  0  0  0  0  0  0  0  0  0  0
    6.8845   -0.9600    0.3422 H   0  0  0  0  0  0  0  0  0  0  0  0
    5.9771   -2.1508   -0.6043 H   0  0  0  0  0  0  0  0  0  0  0  0
    4.5327   -1.9520    1.3051 H   0  0  0  0  0  0  0  0  0  0  0  0
    4.8682   -0.2110    1.4787 H   0  0  0  0  0  0  0  0  0  0  0  0
    1.6205    0.0397   -1.5939 H   0  0  0  0  0  0  0  0  0  0  0  0
   -0.5346    0.3553    0.3122 H   0  0  0  0  0  0  0  0  0  0  0  0
    0.7069    4.7611    1.0220 H   0  0  0  0  0  0  0  0  0  0  0  0
   -1.5589    5.4593    1.9171 H   0  0  0  0  0  0  0  0  0  0  0  0
   -5.2790    2.4482    1.7377 H   0  0  0  0  0  0  0  0  0  0  0  0
   -6.3385    1.2042   -0.0721 H   0  0  0  0  0  0  0  0  0  0  0  0
   -6.2683   -0.4477   -0.7955 H   0  0  0  0  0  0  0  0  0  0  0  0
   -5.8973    0.2024    2.2161 H   0  0  0  0  0  0  0  0  0  0  0  0
   -5.8323   -1.4384    1.4691 H   0  0  0  0  0  0  0  0  0  0  0  0
   -2.9952   -0.6452   -0.9735 H   0  0  0  0  0  0  0  0  0  0  0  0
   -4.3176   -1.7764   -0.6961 H   0  0  0  0  0  0  0  0  0  0  0  0
   -1.6930   -4.0278    0.2648 H   0  0  0  0  0  0  0  0  0  0  0  0
   -2.0584   -2.9814   -1.1098 H   0  0  0  0  0  0  0  0  0  0  0  0
    0.1228   -2.4681    0.9891 H   0  0  0  0  0  0  0  0  0  0  0  0
    1.7570   -3.2184   -0.7181 H   0  0  0  0  0  0  0  0  0  0  0  0
    0.4161   -3.6062   -1.8760 H   0  0  0  0  0  0  0  0  0  0  0  0
   -0.3599   -1.2325   -1.8679 H   0  0  0  0  0  0  0  0  0  0  0  0
    3.6625    0.7385   -1.6782 H   0  0  0  0  0  0  0  0  0  0  0  0
    3.8215   -0.9680   -2.1611 H   0  0  0  0  0  0  0  0  0  0  0  0
  1  2  3  0
  2  3  1  0
  3  4  1  0
  4  5  1  0
  5  6  1  0
  6  7  1  0
  7  8  2  0
  7  9  1  0
  9 10  1  0
 10 11  1  0
 11 12  2  0
 11 13  1  0
 13 14  2  0
 14 15  1  0
 15 16  1  0
 16 17  2  0
 17 18  1  0
 18 19  2  0
 19 20  1  0
 20 21  2  0
 19 22  1  0
 22 23  1  0
 23 24  1  0
 22 25  1  0
 25 26  1  0
 26 27  1  0
 27 28  1  0
 28 29  1  0
 29 30  1  0
  6 31  1  0
 31  3  1  0
 30  9  1  0
 21 13  1  0
 24 22  1  0
 30 28  1  0
 21 16  1  0
  3 32  1  1
  4 33  1  0
  4 34  1  0
  5 35  1  0
  5 36  1  0
  9 37  1  6
 10 38  1  0
 14 39  1  0
 15 40  1  0
 18 41  1  0
 23 42  1  0
 23 43  1  0
 24 44  1  0
 24 45  1  0
 25 46  1  0
 25 47  1  0
 27 48  1  0
 27 49  1  0
 28 50  1  0
 29 51  1  0
 29 52  1  0
 30 53  1  0
 31 54  1  0
 31 55  1  0
M  END
>  <candidate_id>  (1) 
CAND_5a164fb16c

>  <source_generator>  (1) 
v5_3_model_guided_macrocycle

>  <parent_mol_id>  (1) 
JAK2_69b6c7ad6e

>  <canonical_smiles>  (1) 
N#C[C@@H]1CCN(C(=O)[C@@H]2NC(=O)c3c[nH]c4ncc(nc34)C3(CC3)CSCC3CC32)C1

>  <inchikey>  (1) 
SPVWFDQKMXQKBE-SEBUGHOLSA-N

>  <valid_rdkit>  (1) 
True

>  <unique_flag>  (1) 
True

>  <novel_flag>  (1) 
True

>  <mw>  (1) 
436.541

>  <logp>  (1) 
1.8429

>  <tpsa>  (1) 
114.77

>  <hbd>  (1) 
2

>  <hba>  (1) 
6

>  <rotatable_bonds>  (1) 
1

>  <qed>  (1) 
0.705

>  <sa_score>  (1) 
5.006

>  <murcko_scaffold>  (1) 
O=C1N[C@@H](C(=O)N2CCCC2)C2CC2CSCC2(CC2)c2cnc3[nH]cc1c3n2

>  <max_ring_size>  (1) 
13

>  <has_macrocycle_12_20>  (1) 
True

>  <has_constrained_ring_8_11>  (1) 
False

>  <passes_basic_filters>  (1) 
True

>  <generation_notes>  (1) 
v5_3_model_guided_anchor_pair=19-25;anchor_scores=0.691,0.079;linker_length=3;target_ring=12;linker_prob=0.278;chemotype=thioether

$$$$
CAND_d7295004a0
     RDKit          3D

 56 61  0  0  0  0  0  0  0  0999 V2000
    6.4931    2.8556    0.2490 N   0  0  0  0  0  0  0  0  0  0  0  0
    6.2813    1.7762    0.6182 C   0  0  0  0  0  0  0  0  0  0  0  0
    6.0672    0.3975    1.0837 C   0  0  2  0  0  0  0  0  0  0  0  0
    5.8521   -0.5655   -0.0863 C   0  0  0  0  0  0  0  0  0  0  0  0
    4.3582   -0.4691   -0.3709 C   0  0  0  0  0  0  0  0  0  0  0  0
    3.7665   -0.1668    0.9194 N   0  0  0  0  0  0  0  0  0  0  0  0
    2.4266   -0.1755    1.2544 C   0  0  0  0  0  0  0  0  0  0  0  0
    2.0661    0.1133    2.4008 O   0  0  0  0  0  0  0  0  0  0  0  0
    1.3980   -0.5718    0.1577 C   0  0  2  0  0  0  0  0  0  0  0  0
    0.4235    0.4865    0.0183 N   0  0  0  0  0  0  0  0  0  0  0  0
    0.6977    1.6543   -0.6495 C   0  0  0  0  0  0  0  0  0  0  0  0
    1.8135    1.9321   -1.0789 O   0  0  0  0  0  0  0  0  0  0  0  0
   -0.4600    2.5118   -0.8542 C   0  0  0  0  0  0  0  0  0  0  0  0
   -0.4645    3.7810   -1.4188 C   0  0  0  0  0  0  0  0  0  0  0  0
   -1.7668    4.2215   -1.4938 N   0  0  0  0  0  0  0  0  0  0  0  0
   -2.6050    3.2537   -1.0147 C   0  0  0  0  0  0  0  0  0  0  0  0
   -3.9506    3.2906   -0.9842 N   0  0  0  0  0  0  0  0  0  0  0  0
   -4.4471    2.1245   -0.4699 C   0  0  0  0  0  0  0  0  0  0  0  0
   -3.6973    1.0327   -0.0001 C   0  0  0  0  0  0  0  0  0  0  0  0
   -2.3473    1.0829   -0.0411 N   0  0  0  0  0  0  0  0  0  0  0  0
   -1.8150    2.2038   -0.5796 C   0  0  0  0  0  0  0  0  0  0  0  0
   -4.3108   -0.2696    0.5407 C   0  0  0  0  0  0  0  0  0  0  0  0
   -4.8242   -0.2470    1.9803 C   0  0  0  0  0  0  0  0  0  0  0  0
   -5.8008   -0.3719    0.8558 C   0  0  0  0  0  0  0  0  0  0  0  0
   -3.6163   -1.5411    0.0324 C   0  0  0  0  0  0  0  0  0  0  0  0
   -2.5085   -1.9174    0.9176 N   0  0  0  0  0  0  0  0  0  0  0  0
   -1.6813   -2.9824    0.3644 C   0  0  0  0  0  0  0  0  0  0  0  0
   -0.4829   -2.3758   -0.3045 C   0  0  0  0  0  0  0  0  0  0  0  0
    0.8402   -3.1012   -0.2924 C   0  0  0  0  0  0  0  0  0  0  0  0
    0.6732   -1.8469    0.5342 C   0  0  0  0  0  0  0  0  0  0  0  0
    4.7713    0.2667    1.8787 C   0  0  0  0  0  0  0  0  0  0  0  0
    6.9290    0.0965    1.6896 H   0  0  0  0  0  0  0  0  0  0  0  0
    6.0909   -1.5861    0.2392 H   0  0  0  0  0  0  0  0  0  0  0  0
    6.4576   -0.3433   -0.9707 H   0  0  0  0  0  0  0  0  0  0  0  0
    3.9568   -1.4008   -0.7790 H   0  0  0  0  0  0  0  0  0  0  0  0
    4.1291    0.3541   -1.0553 H   0  0  0  0  0  0  0  0  0  0  0  0
    1.8822   -0.6870   -0.8147 H   0  0  0  0  0  0  0  0  0  0  0  0
   -0.5234    0.3221    0.3606 H   0  0  0  0  0  0  0  0  0  0  0  0
    0.3511    4.3934   -1.7824 H   0  0  0  0  0  0  0  0  0  0  0  0
   -2.0797    5.1035   -1.8735 H   0  0  0  0  0  0  0  0  0  0  0  0
   -5.5316    2.0956   -0.4526 H   0  0  0  0  0  0  0  0  0  0  0  0
   -4.6726   -1.1132    2.6132 H   0  0  0  0  0  0  0  0  0  0  0  0
   -4.7806    0.6908    2.5248 H   0  0  0  0  0  0  0  0  0  0  0  0
   -6.4693    0.4634    0.6904 H   0  0  0  0  0  0  0  0  0  0  0  0
   -6.2961   -1.3294    0.7272 H   0  0  0  0  0  0  0  0  0  0  0  0
   -4.3349   -2.3686   -0.0157 H   0  0  0  0  0  0  0  0  0  0  0  0
   -3.2609   -1.3724   -0.9919 H   0  0  0  0  0  0  0  0  0  0  0  0
   -2.8912   -2.2199    1.8099 H   0  0  0  0  0  0  0  0  0  0  0  0
   -2.2323   -3.6255   -0.3317 H   0  0  0  0  0  0  0  0  0  0  0  0
   -1.3543   -3.6279    1.1888 H   0  0  0  0  0  0  0  0  0  0  0  0
   -0.7501   -1.8375   -1.2075 H   0  0  0  0  0  0  0  0  0  0  0  0
    1.4400   -3.0599   -1.1947 H   0  0  0  0  0  0  0  0  0  0  0  0
    0.9145   -4.0441    0.2381 H   0  0  0  0  0  0  0  0  0  0  0  0
    0.5668   -1.9477    1.6109 H   0  0  0  0  0  0  0  0  0  0  0  0
    4.8545   -0.5259    2.6318 H   0  0  0  0  0  0  0  0  0  0  0  0
    4.4545    1.1875    2.3807 H   0  0  0  0  0  0  0  0  0  0  0  0
  1  2  3  0
  2  3  1  0
  3  4  1  0
  4  5  1  0
  5  6  1  0
  6  7  1  0
  7  8  2  0
  7  9  1  0
  9 10  1  0
 10 11  1  0
 11 12  2  0
 11 13  1  0
 13 14  2  0
 14 15  1  0
 15 16  1  0
 16 17  2  0
 17 18  1  0
 18 19  2  0
 19 20  1  0
 20 21  2  0
 19 22  1  0
 22 23  1  0
 23 24  1  0
 22 25  1  0
 25 26  1  0
 26 27  1  0
 27 28  1  0
 28 29  1  0
 29 30  1  0
  6 31  1  0
 31  3  1  0
 30  9  1  0
 21 13  1  0
 24 22  1  0
 30 28  1  0
 21 16  1  0
  3 32  1  1
  4 33  1  0
  4 34  1  0
  5 35  1  0
  5 36  1  0
  9 37  1  6
 10 38  1  0
 14 39  1  0
 15 40  1  0
 18 41  1  0
 23 42  1  0
 23 43  1  0
 24 44  1  0
 24 45  1  0
 25 46  1  0
 25 47  1  0
 26 48  1  0
 27 49  1  0
 27 50  1  0
 28 51  1  0
 29 52  1  0
 29 53  1  0
 30 54  1  0
 31 55  1  0
 31 56  1  0
M  END
>  <candidate_id>  (2) 
CAND_d7295004a0

>  <source_generator>  (2) 
v5_3_model_guided_macrocycle

>  <parent_mol_id>  (2) 
JAK2_69b6c7ad6e

>  <canonical_smiles>  (2) 
N#C[C@@H]1CCN(C(=O)[C@@H]2NC(=O)c3c[nH]c4ncc(nc34)C3(CC3)CNCC3CC32)C1

>  <inchikey>  (2) 
OCXBEBDLAHWVLE-SEBUGHOLSA-N

>  <valid_rdkit>  (2) 
True

>  <unique_flag>  (2) 
True

>  <novel_flag>  (2) 
True

>  <mw>  (2) 
419.489

>  <logp>  (2) 
0.6993

>  <tpsa>  (2) 
126.8

>  <hbd>  (2) 
3

>  <hba>  (2) 
6

>  <rotatable_bonds>  (2) 
1

>  <qed>  (2) 
0.6245

>  <sa_score>  (2) 
4.911

>  <murcko_scaffold>  (2) 
O=C1N[C@@H](C(=O)N2CCCC2)C2CC2CNCC2(CC2)c2cnc3[nH]cc1c3n2

>  <max_ring_size>  (2) 
13

>  <has_macrocycle_12_20>  (2) 
True

>  <has_constrained_ring_8_11>  (2) 
False

>  <passes_basic_filters>  (2) 
True

>  <generation_notes>  (2) 
v5_3_model_guided_anchor_pair=19-25;anchor_scores=0.691,0.079;linker_length=3;target_ring=12;linker_prob=0.278;chemotype=aza

$$$$
CAND_49e76c18fa
     RDKit          3D

 57 62  0  0  0  0  0  0  0  0999 V2000
    7.5350    0.6208   -2.1723 N   0  0  0  0  0  0  0  0  0  0  0  0
    6.7999    0.3921   -1.3044 C   0  0  0  0  0  0  0  0  0  0  0  0
    5.8667    0.1005   -0.2173 C   0  0  2  0  0  0  0  0  0  0  0  0
    5.9709   -1.3402    0.2833 C   0  0  0  0  0  0  0  0  0  0  0  0
    4.6221   -1.5616    0.9490 C   0  0  0  0  0  0  0  0  0  0  0  0
    3.6998   -0.7598    0.1675 N   0  0  0  0  0  0  0  0  0  0  0  0
    2.3335   -0.8804    0.3368 C   0  0  0  0  0  0  0  0  0  0  0  0
    1.8756   -1.6537    1.1847 O   0  0  0  0  0  0  0  0  0  0  0  0
    1.4118   -0.0220   -0.5733 C   0  0  2  0  0  0  0  0  0  0  0  0
    0.4794    0.6943    0.2671 N   0  0  0  0  0  0  0  0  0  0  0  0
    0.8180    1.7779    1.0344 C   0  0  0  0  0  0  0  0  0  0  0  0
    1.9583    2.2249    1.1054 O   0  0  0  0  0  0  0  0  0  0  0  0
   -0.3117    2.3480    1.7549 C   0  0  0  0  0  0  0  0  0  0  0  0
   -0.2665    3.3103    2.7545 C   0  0  0  0  0  0  0  0  0  0  0  0
   -1.5536    3.5636    3.1744 N   0  0  0  0  0  0  0  0  0  0  0  0
   -2.4301    2.8019    2.4527 C   0  0  0  0  0  0  0  0  0  0  0  0
   -3.7709    2.7855    2.5672 N   0  0  0  0  0  0  0  0  0  0  0  0
   -4.3152    1.9196    1.6596 C   0  0  0  0  0  0  0  0  0  0  0  0
   -3.6164    1.1351    0.7222 C   0  0  0  0  0  0  0  0  0  0  0  0
   -2.2641    1.1868    0.6889 N   0  0  0  0  0  0  0  0  0  0  0  0
   -1.6855    2.0446    1.5659 C   0  0  0  0  0  0  0  0  0  0  0  0
   -4.3033    0.2189   -0.3176 C   0  0  0  0  0  0  0  0  0  0  0  0
   -3.3537   -0.4589   -1.3182 C   0  0  0  0  0  0  0  0  0  0  0  0
   -2.6795   -1.7126   -0.7444 C   0  0  0  0  0  0  0  0  0  0  0  0
   -1.6022   -2.2782   -1.6821 C   0  0  0  0  0  0  0  0  0  0  0  0
   -0.2120   -2.0269   -1.1720 C   0  0  0  0  0  0  0  0  0  0  0  0
    0.9701   -2.1617   -2.1039 C   0  0  0  0  0  0  0  0  0  0  0  0
    0.5828   -0.7996   -1.5784 C   0  0  0  0  0  0  0  0  0  0  0  0
   -5.6634    0.6308   -0.8694 C   0  0  0  0  0  0  0  0  0  0  0  0
   -5.5659   -0.5388    0.0638 C   0  0  0  0  0  0  0  0  0  0  0  0
    4.4114    0.1959   -0.6708 C   0  0  0  0  0  0  0  0  0  0  0  0
    6.0339    0.7863    0.6230 H   0  0  0  0  0  0  0  0  0  0  0  0
    6.8073   -1.4941    0.9721 H   0  0  0  0  0  0  0  0  0  0  0  0
    6.0935   -2.0392   -0.5545 H   0  0  0  0  0  0  0  0  0  0  0  0
    4.3187   -2.6129    0.9597 H   0  0  0  0  0  0  0  0  0  0  0  0
    4.6142   -1.1801    1.9763 H   0  0  0  0  0  0  0  0  0  0  0  0
    1.9918    0.7223   -1.1227 H   0  0  0  0  0  0  0  0  0  0  0  0
   -0.4821    0.3653    0.2993 H   0  0  0  0  0  0  0  0  0  0  0  0
    0.5745    3.8242    3.2026 H   0  0  0  0  0  0  0  0  0  0  0  0
   -1.8318    4.2144    3.8951 H   0  0  0  0  0  0  0  0  0  0  0  0
   -5.3998    1.8791    1.7054 H   0  0  0  0  0  0  0  0  0  0  0  0
   -3.9094   -0.7518   -2.2188 H   0  0  0  0  0  0  0  0  0  0  0  0
   -2.6001    0.2615   -1.6597 H   0  0  0  0  0  0  0  0  0  0  0  0
   -2.2671   -1.5133    0.2510 H   0  0  0  0  0  0  0  0  0  0  0  0
   -3.4528   -2.4785   -0.6046 H   0  0  0  0  0  0  0  0  0  0  0  0
   -1.7260   -1.8971   -2.7027 H   0  0  0  0  0  0  0  0  0  0  0  0
   -1.7317   -3.3662   -1.7393 H   0  0  0  0  0  0  0  0  0  0  0  0
   -0.0837   -2.4332   -0.1728 H   0  0  0  0  0  0  0  0  0  0  0  0
    0.7812   -2.3717   -3.1513 H   0  0  0  0  0  0  0  0  0  0  0  0
    1.8543   -2.6566   -1.7177 H   0  0  0  0  0  0  0  0  0  0  0  0
    0.1177   -0.1201   -2.2879 H   0  0  0  0  0  0  0  0  0  0  0  0
   -5.8881    0.4275   -1.9119 H   0  0  0  0  0  0  0  0  0  0  0  0
   -6.1402    1.5367   -0.5137 H   0  0  0  0  0  0  0  0  0  0  0  0
   -5.9655   -0.4362    1.0662 H   0  0  0  0  0  0  0  0  0  0  0  0
   -5.7267   -1.5277   -0.3536 H   0  0  0  0  0  0  0  0  0  0  0  0
    4.0134    1.2055   -0.5320 H   0  0  0  0  0  0  0  0  0  0  0  0
    4.2631   -0.1014   -1.7156 H   0  0  0  0  0  0  0  0  0  0  0  0
  1  2  3  0
  2  3  1  0
  3  4  1  0
  4  5  1  0
  5  6  1  0
  6  7  1  0
  7  8  2  0
  7  9  1  0
  9 10  1  0
 10 11  1  0
 11 12  2  0
 11 13  1  0
 13 14  2  0
 14 15  1  0
 15 16  1  0
 16 17  2  0
 17 18  1  0
 18 19  2  0
 19 20  1  0
 20 21  2  0
 19 22  1  0
 22 23  1  0
 23 24  1  0
 24 25  1  0
 25 26  1  0
 26 27  1  0
 27 28  1  0
 22 29  1  0
 29 30  1  0
  6 31  1  0
 31  3  1  0
 28  9  1  0
 21 13  1  0
 30 22  1  0
 21 16  1  0
 28 26  1  0
  3 32  1  1
  4 33  1  0
  4 34  1  0
  5 35  1  0
  5 36  1  0
  9 37  1  6
 10 38  1  0
 14 39  1  0
 15 40  1  0
 18 41  1  0
 23 42  1  0
 23 43  1  0
 24 44  1  0
 24 45  1  0
 25 46  1  0
 25 47  1  0
 26 48  1  0
 27 49  1  0
 27 50  1  0
 28 51  1  0
 29 52  1  0
 29 53  1  0
 30 54  1  0
 30 55  1  0
 31 56  1  0
 31 57  1  0
M  END
>  <candidate_id>  (3) 
CAND_49e76c18fa

>  <source_generator>  (3) 
v5_3_model_guided_macrocycle

>  <parent_mol_id>  (3) 
JAK2_69b6c7ad6e

>  <canonical_smiles>  (3) 
N#C[C@@H]1CCN(C(=O)[C@@H]2NC(=O)c3c[nH]c4ncc(nc34)C3(CCCC4CC42)CC3)C1

>  <inchikey>  (3) 
XBZKYLTXKLNUSQ-WYXOVGLDSA-N

>  <valid_rdkit>  (3) 
True

>  <unique_flag>  (3) 
True

>  <novel_flag>  (3) 
True

>  <mw>  (3) 
418.501

>  <logp>  (3) 
2.28

>  <tpsa>  (3) 
114.77

>  <hbd>  (3) 
2

>  <hba>  (3) 
5

>  <rotatable_bonds>  (3) 
1

>  <qed>  (3) 
0.7373

>  <sa_score>  (3) 
4.906

>  <murcko_scaffold>  (3) 
O=C1N[C@@H](C(=O)N2CCCC2)C2CC2CCCC2(CC2)c2cnc3[nH]cc1c3n2

>  <max_ring_size>  (3) 
13

>  <has_macrocycle_12_20>  (3) 
True

>  <has_constrained_ring_8_11>  (3) 
False

>  <passes_basic_filters>  (3) 
True

>  <generation_notes>  (3) 
v5_3_model_guided_anchor_pair=19-25;anchor_scores=0.691,0.079;linker_length=3;target_ring=12;linker_prob=0.278;chemotype=alkyl

$$$$
CAND_f14ad9ba35
     RDKit          3D

 55 60  0  0  0  0  0  0  0  0999 V2000
    6.1834    2.4444    0.7532 N   0  0  0  0  0  0  0  0  0  0  0  0
    5.9771    1.3072    0.8547 C   0  0  0  0  0  0  0  0  0  0  0  0
    5.7597   -0.1412    0.9902 C   0  0  2  0  0  0  0  0  0  0  0  0
    5.7481   -0.8407   -0.3708 C   0  0  0  0  0  0  0  0  0  0  0  0
    4.3068   -0.6975   -0.8452 C   0  0  0  0  0  0  0  0  0  0  0  0
    3.5257   -0.6667    0.3791 N   0  0  0  0  0  0  0  0  0  0  0  0
    2.1524   -0.7333    0.5045 C   0  0  0  0  0  0  0  0  0  0  0  0
    1.6214   -0.6652    1.6187 O   0  0  0  0  0  0  0  0  0  0  0  0
    1.3008   -0.8932   -0.7878 C   0  0  2  0  0  0  0  0  0  0  0  0
    0.3743    0.2109   -0.8713 N   0  0  0  0  0  0  0  0  0  0  0  0
    0.7417    1.4828   -1.2304 C   0  0  0  0  0  0  0  0  0  0  0  0
    1.8592    1.7687   -1.6465 O   0  0  0  0  0  0  0  0  0  0  0  0
   -0.3113    2.4684   -1.0233 C   0  0  0  0  0  0  0  0  0  0  0  0
   -0.2080    3.8439   -1.1814 C   0  0  0  0  0  0  0  0  0  0  0  0
   -1.4009    4.4184   -0.8016 N   0  0  0  0  0  0  0  0  0  0  0  0
   -2.2713    3.4441   -0.3979 C   0  0  0  0  0  0  0  0  0  0  0  0
   -3.5137    3.6208    0.0907 N   0  0  0  0  0  0  0  0  0  0  0  0
   -4.0769    2.4175    0.4095 C   0  0  0  0  0  0  0  0  0  0  0  0
   -3.4899    1.1531    0.2353 C   0  0  0  0  0  0  0  0  0  0  0  0
   -2.2389    1.0494   -0.2700 N   0  0  0  0  0  0  0  0  0  0  0  0
   -1.6333    2.2271   -0.5658 C   0  0  0  0  0  0  0  0  0  0  0  0
   -4.1873   -0.1562    0.6039 C   0  0  0  0  0  0  0  0  0  0  0  0
   -5.7086   -0.2687    0.5714 C   0  0  0  0  0  0  0  0  0  0  0  0
   -4.9077   -0.8858   -0.5286 C   0  0  0  0  0  0  0  0  0  0  0  0
   -3.4235   -1.0190    1.6069 C   0  0  0  0  0  0  0  0  0  0  0  0
   -2.6540   -2.0063    0.9119 O   0  0  0  0  0  0  0  0  0  0  0  0
   -1.2484   -1.8893    1.1303 C   0  0  0  0  0  0  0  0  0  0  0  0
   -0.5476   -2.7091    0.0873 C   0  0  0  0  0  0  0  0  0  0  0  0
   -0.7695   -2.4501   -1.3881 C   0  0  0  0  0  0  0  0  0  0  0  0
    0.6102   -2.2431   -0.8020 C   0  0  0  0  0  0  0  0  0  0  0  0
    4.3714   -0.4486    1.5439 C   0  0  0  0  0  0  0  0  0  0  0  0
    6.5400   -0.5524    1.6399 H   0  0  0  0  0  0  0  0  0  0  0  0
    6.4640   -0.4348   -1.0925 H   0  0  0  0  0  0  0  0  0  0  0  0
    5.9762   -1.9050   -0.2304 H   0  0  0  0  0  0  0  0  0  0  0  0
    4.0005   -1.5295   -1.4852 H   0  0  0  0  0  0  0  0  0  0  0  0
    4.1489    0.2459   -1.3774 H   0  0  0  0  0  0  0  0  0  0  0  0
    1.9324   -0.8335   -1.6773 H   0  0  0  0  0  0  0  0  0  0  0  0
   -0.5826    0.0747   -0.5635 H   0  0  0  0  0  0  0  0  0  0  0  0
    0.6248    4.4564   -1.5041 H   0  0  0  0  0  0  0  0  0  0  0  0
   -1.6106    5.4063   -0.7844 H   0  0  0  0  0  0  0  0  0  0  0  0
   -5.0738    2.5030    0.8323 H   0  0  0  0  0  0  0  0  0  0  0  0
   -6.3200    0.5868    0.3100 H   0  0  0  0  0  0  0  0  0  0  0  0
   -6.1970   -0.9404    1.2701 H   0  0  0  0  0  0  0  0  0  0  0  0
   -4.8373   -1.9680   -0.5681 H   0  0  0  0  0  0  0  0  0  0  0  0
   -4.9301   -0.4213   -1.5085 H   0  0  0  0  0  0  0  0  0  0  0  0
   -4.1296   -1.5635    2.2438 H   0  0  0  0  0  0  0  0  0  0  0  0
   -2.8079   -0.4055    2.2770 H   0  0  0  0  0  0  0  0  0  0  0  0
   -0.9443   -0.8441    1.1234 H   0  0  0  0  0  0  0  0  0  0  0  0
   -1.0180   -2.2892    2.1243 H   0  0  0  0  0  0  0  0  0  0  0  0
   -0.5479   -3.7538    0.3872 H   0  0  0  0  0  0  0  0  0  0  0  0
   -0.9264   -3.3120   -2.0285 H   0  0  0  0  0  0  0  0  0  0  0  0
   -1.3858   -1.6036   -1.6683 H   0  0  0  0  0  0  0  0  0  0  0  0
    1.3496   -3.0108   -1.0238 H   0  0  0  0  0  0  0  0  0  0  0  0
    4.3773   -1.3867    2.1115 H   0  0  0  0  0  0  0  0  0  0  0  0
    3.9559    0.3385    2.1828 H   0  0  0  0  0  0  0  0  0  0  0  0
  1  2  3  0
  2  3  1  0
  3  4  1  0
  4  5  1  0
  5  6  1  0
  6  7  1  0
  7  8  2  0
  7  9  1  0
  9 10  1  0
 10 11  1  0
 11 12  2  0
 11 13  1  0
 13 14  2  0
 14 15  1  0
 15 16  1  0
 16 17  2  0
 17 18  1  0
 18 19  2  0
 19 20  1  0
 20 21  2  0
 19 22  1  0
 22 23  1  0
 23 24  1  0
 22 25  1  0
 25 26  1  0
 26 27  1  0
 27 28  1  0
 28 29  1  0
 29 30  1  0
  6 31  1  0
 31  3  1  0
 30  9  1  0
 21 13  1  0
 24 22  1  0
 30 28  1  0
 21 16  1  0
  3 32  1  1
  4 33  1  0
  4 34  1  0
  5 35  1  0
  5 36  1  0
  9 37  1  6
 10 38  1  0
 14 39  1  0
 15 40  1  0
 18 41  1  0
 23 42  1  0
 23 43  1  0
 24 44  1  0
 24 45  1  0
 25 46  1  0
 25 47  1  0
 27 48  1  0
 27 49  1  0
 28 50  1  0
 29 51  1  0
 29 52  1  0
 30 53  1  0
 31 54  1  0
 31 55  1  0
M  END
>  <candidate_id>  (4) 
CAND_f14ad9ba35

>  <source_generator>  (4) 
v5_3_model_guided_macrocycle

>  <parent_mol_id>  (4) 
JAK2_69b6c7ad6e

>  <canonical_smiles>  (4) 
N#C[C@@H]1CCN(C(=O)[C@@H]2NC(=O)c3c[nH]c4ncc(nc34)C3(CC3)COCC3CC32)C1

>  <inchikey>  (4) 
FYCAHTMFAMULSV-SEBUGHOLSA-N

>  <valid_rdkit>  (4) 
True

>  <unique_flag>  (4) 
True

>  <novel_flag>  (4) 
True

>  <mw>  (4) 
420.473

>  <logp>  (4) 
1.1263

>  <tpsa>  (4) 
124.0

>  <hbd>  (4) 
2

>  <hba>  (4) 
6

>  <rotatable_bonds>  (4) 
1

>  <qed>  (4) 
0.7126

>  <sa_score>  (4) 
4.917

>  <murcko_scaffold>  (4) 
O=C1N[C@@H](C(=O)N2CCCC2)C2CC2COCC2(CC2)c2cnc3[nH]cc1c3n2

>  <max_ring_size>  (4) 
13

>  <has_macrocycle_12_20>  (4) 
True

>  <has_constrained_ring_8_11>  (4) 
False

>  <passes_basic_filters>  (4) 
True

>  <generation_notes>  (4) 
v5_3_model_guided_anchor_pair=19-25;anchor_scores=0.691,0.079;linker_length=3;target_ring=12;linker_prob=0.278;chemotype=oxa

$$$$
CAND_c71340cdb2
     RDKit          3D

 55 60  0  0  0  0  0  0  0  0999 V2000
    6.2825   -1.9723    1.1533 N   0  0  0  0  0  0  0  0  0  0  0  0
    5.7706   -0.9323    1.1046 C   0  0  0  0  0  0  0  0  0  0  0  0
    5.1330    0.3915    1.0344 C   0  0  2  0  0  0  0  0  0  0  0  0
    4.5731    0.8210    2.3916 C   0  0  0  0  0  0  0  0  0  0  0  0
    3.2009    0.1614    2.4440 C   0  0  0  0  0  0  0  0  0  0  0  0
    2.7789    0.0871    1.0574 N   0  0  0  0  0  0  0  0  0  0  0  0
    1.4511   -0.1276    0.7301 C   0  0  0  0  0  0  0  0  0  0  0  0
    0.5956   -0.2151    1.6162 O   0  0  0  0  0  0  0  0  0  0  0  0
    1.0809   -0.1950   -0.7763 C   0  0  2  0  0  0  0  0  0  0  0  0
   -0.0041    0.7404   -0.9678 N   0  0  0  0  0  0  0  0  0  0  0  0
    0.1131    2.0693   -1.2983 C   0  0  0  0  0  0  0  0  0  0  0  0
    1.1709    2.6040   -1.6113 O   0  0  0  0  0  0  0  0  0  0  0  0
   -1.1591    2.7866   -1.2085 C   0  0  0  0  0  0  0  0  0  0  0  0
   -1.4250    4.1351   -1.3987 C   0  0  0  0  0  0  0  0  0  0  0  0
   -2.7697    4.3572   -1.1528 N   0  0  0  0  0  0  0  0  0  0  0  0
   -3.3774    3.1808   -0.8015 C   0  0  0  0  0  0  0  0  0  0  0  0
   -4.6645    2.9738   -0.4470 N   0  0  0  0  0  0  0  0  0  0  0  0
   -4.8718    1.6543   -0.1251 C   0  0  0  0  0  0  0  0  0  0  0  0
   -3.9094    0.6399   -0.1751 C   0  0  0  0  0  0  0  0  0  0  0  0
   -2.6592    0.9154   -0.5807 N   0  0  0  0  0  0  0  0  0  0  0  0
   -2.4018    2.2073   -0.8628 C   0  0  0  0  0  0  0  0  0  0  0  0
   -4.1261   -0.8073    0.1857 C   0  0  0  0  0  0  0  0  0  0  0  0
   -4.4451   -1.3263    1.5604 C   0  0  0  0  0  0  0  0  0  0  0  0
   -3.0206   -1.3953    1.0751 C   0  0  0  0  0  0  0  0  0  0  0  0
   -2.3249   -2.6599    0.6852 C   0  0  0  0  0  0  0  0  0  0  0  0
   -0.9561   -2.3848    0.3580 O   0  0  0  0  0  0  0  0  0  0  0  0
   -0.7480   -2.0844   -1.0169 C   0  0  0  0  0  0  0  0  0  0  0  0
    0.6875   -1.6107   -1.2495 C   0  0  0  0  0  0  0  0  0  0  0  0
    1.3458   -2.0929   -2.5377 C   0  0  0  0  0  0  0  0  0  0  0  0
    1.7638   -2.6869   -1.2279 C   0  0  0  0  0  0  0  0  0  0  0  0
    3.8882    0.3521    0.1494 C   0  0  0  0  0  0  0  0  0  0  0  0
    5.8623    1.1158    0.6561 H   0  0  0  0  0  0  0  0  0  0  0  0
    5.1992    0.5434    3.2454 H   0  0  0  0  0  0  0  0  0  0  0  0
    4.4492    1.9114    2.4021 H   0  0  0  0  0  0  0  0  0  0  0  0
    2.4864    0.7271    3.0498 H   0  0  0  0  0  0  0  0  0  0  0  0
    3.2589   -0.8617    2.8316 H   0  0  0  0  0  0  0  0  0  0  0  0
    1.9154    0.1699   -1.3796 H   0  0  0  0  0  0  0  0  0  0  0  0
   -0.8947    0.4537   -0.5664 H   0  0  0  0  0  0  0  0  0  0  0  0
   -0.7719    4.9547   -1.6698 H   0  0  0  0  0  0  0  0  0  0  0  0
   -3.2445    5.2477   -1.1953 H   0  0  0  0  0  0  0  0  0  0  0  0
   -5.8850    1.4252    0.1935 H   0  0  0  0  0  0  0  0  0  0  0  0
   -4.4743   -1.4262   -0.6381 H   0  0  0  0  0  0  0  0  0  0  0  0
   -4.6721   -0.6127    2.3453 H   0  0  0  0  0  0  0  0  0  0  0  0
   -5.0027   -2.2529    1.6393 H   0  0  0  0  0  0  0  0  0  0  0  0
   -2.3295   -0.7273    1.5858 H   0  0  0  0  0  0  0  0  0  0  0  0
   -2.3083   -3.3272    1.5532 H   0  0  0  0  0  0  0  0  0  0  0  0
   -2.8263   -3.1931   -0.1308 H   0  0  0  0  0  0  0  0  0  0  0  0
   -1.4714   -1.3511   -1.3817 H   0  0  0  0  0  0  0  0  0  0  0  0
   -0.9318   -3.0055   -1.5850 H   0  0  0  0  0  0  0  0  0  0  0  0
    0.7754   -2.7168   -3.2179 H   0  0  0  0  0  0  0  0  0  0  0  0
    2.0474   -1.4417   -3.0480 H   0  0  0  0  0  0  0  0  0  0  0  0
    1.4620   -3.7056   -1.0040 H   0  0  0  0  0  0  0  0  0  0  0  0
    2.7481   -2.4467   -0.8449 H   0  0  0  0  0  0  0  0  0  0  0  0
    3.7035    1.3327   -0.3044 H   0  0  0  0  0  0  0  0  0  0  0  0
    3.9316   -0.3994   -0.6441 H   0  0  0  0  0  0  0  0  0  0  0  0
  1  2  3  0
  2  3  1  0
  3  4  1  0
  4  5  1  0
  5  6  1  0
  6  7  1  0
  7  8  2  0
  7  9  1  0
  9 10  1  0
 10 11  1  0
 11 12  2  0
 11 13  1  0
 13 14  2  0
 14 15  1  0
 15 16  1  0
 16 17  2  0
 17 18  1  0
 18 19  2  0
 19 20  1  0
 20 21  2  0
 19 22  1  0
 22 23  1  0
 23 24  1  0
 24 25  1  0
 25 26  1  0
 26 27  1  0
 27 28  1  0
 28 29  1  0
 29 30  1  0
  6 31  1  0
 31  3  1  0
 28  9  1  0
 21 13  1  0
 24 22  1  0
 30 28  1  0
 21 16  1  0
  3 32  1  6
  4 33  1  0
  4 34  1  0
  5 35  1  0
  5 36  1  0
  9 37  1  6
 10 38  1  0
 14 39  1  0
 15 40  1  0
 18 41  1  0
 22 42  1  0
 23 43  1  0
 23 44  1  0
 24 45  1  0
 25 46  1  0
 25 47  1  0
 27 48  1  0
 27 49  1  0
 29 50  1  0
 29 51  1  0
 30 52  1  0
 30 53  1  0
 31 54  1  0
 31 55  1  0
M  END
>  <candidate_id>  (5) 
CAND_c71340cdb2

>  <source_generator>  (5) 
v5_3_model_guided_macrocycle

>  <parent_mol_id>  (5) 
JAK2_69b6c7ad6e

>  <canonical_smiles>  (5) 
N#C[C@@H]1CCN(C(=O)[C@@H]2NC(=O)c3c[nH]c4ncc(nc34)C3CC3COCC23CC3)C1

>  <inchikey>  (5) 
RGFMCTZPJBFCLO-YGFYOVKCSA-N

>  <valid_rdkit>  (5) 
True

>  <unique_flag>  (5) 
True

>  <novel_flag>  (5) 
True

>  <mw>  (5) 
420.473

>  <logp>  (5) 
1.3423

>  <tpsa>  (5) 
124.0

>  <hbd>  (5) 
2

>  <hba>  (5) 
6

>  <rotatable_bonds>  (5) 
1

>  <qed>  (5) 
0.7175

>  <sa_score>  (5) 
4.917

>  <murcko_scaffold>  (5) 
O=C1N[C@@H](C(=O)N2CCCC2)C2(CC2)COCC2CC2c2cnc3[nH]cc1c3n2

>  <max_ring_size>  (5) 
13

>  <has_macrocycle_12_20>  (5) 
True

>  <has_constrained_ring_8_11>  (5) 
False

>  <passes_basic_filters>  (5) 
True

>  <generation_notes>  (5) 
v5_3_model_guided_anchor_pair=24-20;anchor_scores=0.691,0.079;linker_length=3;target_ring=12;linker_prob=0.278;chemotype=oxa

$$$$
CAND_492981f42f
     RDKit          3D

 56 61  0  0  0  0  0  0  0  0999 V2000
    7.0969    1.4953    2.6215 N   0  0  0  0  0  0  0  0  0  0  0  0
    6.3870    1.0086    1.8436 C   0  0  0  0  0  0  0  0  0  0  0  0
    5.5054    0.3864    0.8575 C   0  0  2  0  0  0  0  0  0  0  0  0
    5.2798    1.2601   -0.3767 C   0  0  0  0  0  0  0  0  0  0  0  0
    3.9851    0.7067   -0.9579 C   0  0  0  0  0  0  0  0  0  0  0  0
    3.2557    0.1996    0.1927 N   0  0  0  0  0  0  0  0  0  0  0  0
    1.9202   -0.1434    0.2590 C   0  0  0  0  0  0  0  0  0  0  0  0
    1.4059   -0.4585    1.3369 O   0  0  0  0  0  0  0  0  0  0  0  0
    1.0902   -0.0977   -1.0639 C   0  0  2  0  0  0  0  0  0  0  0  0
    0.0614    0.9307   -0.9632 N   0  0  0  0  0  0  0  0  0  0  0  0
    0.2350    2.2076   -0.5101 C   0  0  0  0  0  0  0  0  0  0  0  0
    1.3094    2.7956   -0.5062 O   0  0  0  0  0  0  0  0  0  0  0  0
   -0.9942    2.7526    0.0707 C   0  0  0  0  0  0  0  0  0  0  0  0
   -1.1476    4.0014    0.6576 C   0  0  0  0  0  0  0  0  0  0  0  0
   -2.4120    4.0798    1.1984 N   0  0  0  0  0  0  0  0  0  0  0  0
   -3.0814    2.9071    0.9819 C   0  0  0  0  0  0  0  0  0  0  0  0
   -4.3214    2.5970    1.4070 N   0  0  0  0  0  0  0  0  0  0  0  0
   -4.6595    1.3317    1.0192 C   0  0  0  0  0  0  0  0  0  0  0  0
   -3.8634    0.4482    0.2711 C   0  0  0  0  0  0  0  0  0  0  0  0
   -2.6349    0.8369   -0.1445 N   0  0  0  0  0  0  0  0  0  0  0  0
   -2.2440    2.0808    0.2509 C   0  0  0  0  0  0  0  0  0  0  0  0
   -4.4115   -0.8809   -0.2241 C   0  0  0  0  0  0  0  0  0  0  0  0
   -5.0556   -1.8531    0.7357 C   0  0  0  0  0  0  0  0  0  0  0  0
   -3.8073   -2.2703    0.0006 C   0  0  0  0  0  0  0  0  0  0  0  0
   -2.6016   -2.6420    0.8143 C   0  0  0  0  0  0  0  0  0  0  0  0
   -1.4087   -2.8810   -0.0266 N   0  0  0  0  0  0  0  0  0  0  0  0
   -0.9370   -1.5889   -0.5073 C   0  0  0  0  0  0  0  0  0  0  0  0
    0.3828   -1.4774   -1.2562 C   0  0  0  0  0  0  0  0  0  0  0  0
    0.4431   -2.1122   -2.6372 C   0  0  0  0  0  0  0  0  0  0  0  0
    1.2467   -2.7028   -1.5193 C   0  0  0  0  0  0  0  0  0  0  0  0
    4.0894    0.1942    1.3843 C   0  0  0  0  0  0  0  0  0  0  0  0
    5.9133   -0.5822    0.5410 H   0  0  0  0  0  0  0  0  0  0  0  0
    5.1399    2.3113   -0.0919 H   0  0  0  0  0  0  0  0  0  0  0  0
    6.1090    1.2164   -1.0897 H   0  0  0  0  0  0  0  0  0  0  0  0
    3.4150    1.4699   -1.4927 H   0  0  0  0  0  0  0  0  0  0  0  0
    4.1757   -0.1368   -1.6301 H   0  0  0  0  0  0  0  0  0  0  0  0
    1.7101    0.1345   -1.9317 H   0  0  0  0  0  0  0  0  0  0  0  0
   -0.9039    0.6575   -1.1076 H   0  0  0  0  0  0  0  0  0  0  0  0
   -0.4477    4.8203    0.7666 H   0  0  0  0  0  0  0  0  0  0  0  0
   -2.7941    4.8594    1.7146 H   0  0  0  0  0  0  0  0  0  0  0  0
   -5.6605    1.0317    1.3198 H   0  0  0  0  0  0  0  0  0  0  0  0
   -4.9073   -0.7786   -1.1902 H   0  0  0  0  0  0  0  0  0  0  0  0
   -5.9914   -2.3151    0.4396 H   0  0  0  0  0  0  0  0  0  0  0  0
   -4.9812   -1.6684    1.8022 H   0  0  0  0  0  0  0  0  0  0  0  0
   -3.9426   -2.9872   -0.8065 H   0  0  0  0  0  0  0  0  0  0  0  0
   -2.3991   -1.9105    1.6066 H   0  0  0  0  0  0  0  0  0  0  0  0
   -2.8272   -3.5867    1.3236 H   0  0  0  0  0  0  0  0  0  0  0  0
   -0.6813   -3.2546    0.5837 H   0  0  0  0  0  0  0  0  0  0  0  0
   -1.6945   -1.2102   -1.2008 H   0  0  0  0  0  0  0  0  0  0  0  0
   -0.8785   -0.9362    0.3687 H   0  0  0  0  0  0  0  0  0  0  0  0
   -0.4202   -2.6724   -2.9836 H   0  0  0  0  0  0  0  0  0  0  0  0
    0.9721   -1.5972   -3.4306 H   0  0  0  0  0  0  0  0  0  0  0  0
    2.3240   -2.5853   -1.5523 H   0  0  0  0  0  0  0  0  0  0  0  0
    0.9326   -3.6660   -1.1329 H   0  0  0  0  0  0  0  0  0  0  0  0
    3.9660   -0.7439    1.9359 H   0  0  0  0  0  0  0  0  0  0  0  0
    3.7579    1.0179    2.0289 H   0  0  0  0  0  0  0  0  0  0  0  0
  1  2  3  0
  2  3  1  0
  3  4  1  0
  4  5  1  0
  5  6  1  0
  6  7  1  0
  7  8  2  0
  7  9  1  0
  9 10  1  0
 10 11  1  0
 11 12  2  0
 11 13  1  0
 13 14  2  0
 14 15  1  0
 15 16  1  0
 16 17  2  0
 17 18  1  0
 18 19  2  0
 19 20  1  0
 20 21  2  0
 19 22  1  0
 22 23  1  0
 23 24  1  0
 24 25  1  0
 25 26  1  0
 26 27  1  0
 27 28  1  0
 28 29  1  0
 29 30  1  0
  6 31  1  0
 31  3  1  0
 28  9  1  0
 21 13  1  0
 24 22  1  0
 30 28  1  0
 21 16  1  0
  3 32  1  6
  4 33  1  0
  4 34  1  0
  5 35  1  0
  5 36  1  0
  9 37  1  6
 10 38  1  0
 14 39  1  0
 15 40  1  0
 18 41  1  0
 22 42  1  0
 23 43  1  0
 23 44  1  0
 24 45  1  0
 25 46  1  0
 25 47  1  0
 26 48  1  0
 27 49  1  0
 27 50  1  0
 29 51  1  0
 29 52  1  0
 30 53  1  0
 30 54  1  0
 31 55  1  0
 31 56  1  0
M  END
>  <candidate_id>  (6) 
CAND_492981f42f

>  <source_generator>  (6) 
v5_3_model_guided_macrocycle

>  <parent_mol_id>  (6) 
JAK2_69b6c7ad6e

>  <canonical_smiles>  (6) 
N#C[C@@H]1CCN(C(=O)[C@@H]2NC(=O)c3c[nH]c4ncc(nc34)C3CC3CNCC23CC3)C1

>  <inchikey>  (6) 
IPHWYJUXNGKNHB-YGFYOVKCSA-N

>  <valid_rdkit>  (6) 
True

>  <unique_flag>  (6) 
True

>  <novel_flag>  (6) 
True

>  <mw>  (6) 
419.489

>  <logp>  (6) 
0.9153

>  <tpsa>  (6) 
126.8

>  <hbd>  (6) 
3

>  <hba>  (6) 
6

>  <rotatable_bonds>  (6) 
1

>  <qed>  (6) 
0.6308

>  <sa_score>  (6) 
4.911

>  <murcko_scaffold>  (6) 
O=C1N[C@@H](C(=O)N2CCCC2)C2(CC2)CNCC2CC2c2cnc3[nH]cc1c3n2

>  <max_ring_size>  (6) 
13

>  <has_macrocycle_12_20>  (6) 
True

>  <has_constrained_ring_8_11>  (6) 
False

>  <passes_basic_filters>  (6) 
True

>  <generation_notes>  (6) 
v5_3_model_guided_anchor_pair=24-20;anchor_scores=0.691,0.079;linker_length=3;target_ring=12;linker_prob=0.278;chemotype=aza

$$$$
CAND_38de1fc846
     RDKit          3D

 55 60  0  0  0  0  0  0  0  0999 V2000
    7.2861   -0.7061   -1.2462 N   0  0  0  0  0  0  0  0  0  0  0  0
    6.4283   -0.2540   -0.6093 C   0  0  0  0  0  0  0  0  0  0  0  0
    5.3424    0.3071    0.1927 C   0  0  2  0  0  0  0  0  0  0  0  0
    5.3719   -0.1676    1.6456 C   0  0  0  0  0  0  0  0  0  0  0  0
    3.9391    0.0580    2.1016 C   0  0  0  0  0  0  0  0  0  0  0  0
    3.1408   -0.1691    0.9109 N   0  0  0  0  0  0  0  0  0  0  0  0
    1.7676   -0.2846    0.9883 C   0  0  0  0  0  0  0  0  0  0  0  0
    1.1878   -0.1567    2.0716 O   0  0  0  0  0  0  0  0  0  0  0  0
    0.9799   -0.5670   -0.3187 C   0  0  2  0  0  0  0  0  0  0  0  0
    0.0053    0.4838   -0.5261 N   0  0  0  0  0  0  0  0  0  0  0  0
    0.2807    1.6644   -1.1673 C   0  0  0  0  0  0  0  0  0  0  0  0
    1.3910    1.9502   -1.6038 O   0  0  0  0  0  0  0  0  0  0  0  0
   -0.8780    2.5369   -1.3080 C   0  0  0  0  0  0  0  0  0  0  0  0
   -0.9165    3.7654   -1.9548 C   0  0  0  0  0  0  0  0  0  0  0  0
   -2.2061    4.2458   -1.9068 N   0  0  0  0  0  0  0  0  0  0  0  0
   -3.0036    3.3526   -1.2473 C   0  0  0  0  0  0  0  0  0  0  0  0
   -4.3274    3.4627   -1.0270 N   0  0  0  0  0  0  0  0  0  0  0  0
   -4.7893    2.3766   -0.3411 C   0  0  0  0  0  0  0  0  0  0  0  0
   -4.0232    1.2830    0.0966 C   0  0  0  0  0  0  0  0  0  0  0  0
   -2.6926    1.2425   -0.1513 N   0  0  0  0  0  0  0  0  0  0  0  0
   -2.1997    2.2983   -0.8469 C   0  0  0  0  0  0  0  0  0  0  0  0
   -4.6523    0.1454    0.8881 C   0  0  0  0  0  0  0  0  0  0  0  0
   -3.8448   -0.4743    2.0105 C   0  0  0  0  0  0  0  0  0  0  0  0
   -4.2094   -1.3135    0.8119 C   0  0  0  0  0  0  0  0  0  0  0  0
   -3.1972   -1.8326   -0.1630 C   0  0  0  0  0  0  0  0  0  0  0  0
   -2.1753   -3.1170    0.6221 S   0  0  0  0  0  0  0  0  0  0  0  0
   -0.6504   -2.1748    0.9031 C   0  0  0  0  0  0  0  0  0  0  0  0
    0.2501   -1.9258   -0.3081 C   0  0  0  0  0  0  0  0  0  0  0  0
   -0.0264   -2.5492   -1.6782 C   0  0  0  0  0  0  0  0  0  0  0  0
    1.0454   -3.1267   -0.8088 C   0  0  0  0  0  0  0  0  0  0  0  0
    3.9718   -0.1657   -0.2873 C   0  0  0  0  0  0  0  0  0  0  0  0
    5.3795    1.4038    0.1716 H   0  0  0  0  0  0  0  0  0  0  0  0
    5.6190   -1.2358    1.7047 H   0  0  0  0  0  0  0  0  0  0  0  0
    6.0964    0.3772    2.2588 H   0  0  0  0  0  0  0  0  0  0  0  0
    3.7787    1.0936    2.4221 H   0  0  0  0  0  0  0  0  0  0  0  0
    3.6387   -0.6134    2.9117 H   0  0  0  0  0  0  0  0  0  0  0  0
    1.6586   -0.5448   -1.1750 H   0  0  0  0  0  0  0  0  0  0  0  0
   -0.9170    0.3816   -0.1119 H   0  0  0  0  0  0  0  0  0  0  0  0
   -0.1353    4.3250   -2.4538 H   0  0  0  0  0  0  0  0  0  0  0  0
   -2.5380    5.1133   -2.3041 H   0  0  0  0  0  0  0  0  0  0  0  0
   -5.8554    2.4102   -0.1308 H   0  0  0  0  0  0  0  0  0  0  0  0
   -5.7126    0.2775    1.1027 H   0  0  0  0  0  0  0  0  0  0  0  0
   -2.8164   -0.1600    2.1459 H   0  0  0  0  0  0  0  0  0  0  0  0
   -4.3519   -0.6849    2.9461 H   0  0  0  0  0  0  0  0  0  0  0  0
   -4.9856   -2.0595    0.9710 H   0  0  0  0  0  0  0  0  0  0  0  0
   -2.5597   -1.0736   -0.6091 H   0  0  0  0  0  0  0  0  0  0  0  0
   -3.7331   -2.3060   -0.9930 H   0  0  0  0  0  0  0  0  0  0  0  0
   -0.9428   -1.2370    1.3798 H   0  0  0  0  0  0  0  0  0  0  0  0
   -0.0688   -2.7251    1.6519 H   0  0  0  0  0  0  0  0  0  0  0  0
   -0.9051   -3.1577   -1.8528 H   0  0  0  0  0  0  0  0  0  0  0  0
    0.2772   -2.0020   -2.5658 H   0  0  0  0  0  0  0  0  0  0  0  0
    0.8585   -4.0991   -0.3628 H   0  0  0  0  0  0  0  0  0  0  0  0
    2.0760   -2.9898   -1.1167 H   0  0  0  0  0  0  0  0  0  0  0  0
    3.9844   -1.1861   -0.6877 H   0  0  0  0  0  0  0  0  0  0  0  0
    3.5588    0.5044   -1.0459 H   0  0  0  0  0  0  0  0  0  0  0  0
  1  2  3  0
  2  3  1  0
  3  4  1  0
  4  5  1  0
  5  6  1  0
  6  7  1  0
  7  8  2  0
  7  9  1  0
  9 10  1  0
 10 11  1  0
 11 12  2  0
 11 13  1  0
 13 14  2  0
 14 15  1  0
 15 16  1  0
 16 17  2  0
 17 18  1  0
 18 19  2  0
 19 20  1  0
 20 21  2  0
 19 22  1  0
 22 23  1  0
 23 24  1  0
 24 25  1  0
 25 26  1  0
 26 27  1  0
 27 28  1  0
 28 29  1  0
 29 30  1  0
  6 31  1  0
 31  3  1  0
 28  9  1  0
 21 13  1  0
 24 22  1  0
 30 28  1  0
 21 16  1  0
  3 32  1  1
  4 33  1  0
  4 34  1  0
  5 35  1  0
  5 36  1  0
  9 37  1  6
 10 38  1  0
 14 39  1  0
 15 40  1  0
 18 41  1  0
 22 42  1  0
 23 43  1  0
 23 44  1  0
 24 45  1  0
 25 46  1  0
 25 47  1  0
 27 48  1  0
 27 49  1  0
 29 50  1  0
 29 51  1  0
 30 52  1  0
 30 53  1  0
 31 54  1  0
 31 55  1  0
M  END
>  <candidate_id>  (7) 
CAND_38de1fc846

>  <source_generator>  (7) 
v5_3_model_guided_macrocycle

>  <parent_mol_id>  (7) 
JAK2_69b6c7ad6e

>  <canonical_smiles>  (7) 
N#C[C@@H]1CCN(C(=O)[C@@H]2NC(=O)c3c[nH]c4ncc(nc34)C3CC3CSCC23CC3)C1

>  <inchikey>  (7) 
YLWJLPCJNFQMCO-YGFYOVKCSA-N

>  <valid_rdkit>  (7) 
True

>  <unique_flag>  (7) 
True

>  <novel_flag>  (7) 
True

>  <mw>  (7) 
436.541

>  <logp>  (7) 
2.0589

>  <tpsa>  (7) 
114.77

>  <hbd>  (7) 
2

>  <hba>  (7) 
6

>  <rotatable_bonds>  (7) 
1

>  <qed>  (7) 
0.7072

>  <sa_score>  (7) 
5.006

>  <murcko_scaffold>  (7) 
O=C1N[C@@H](C(=O)N2CCCC2)C2(CC2)CSCC2CC2c2cnc3[nH]cc1c3n2

>  <max_ring_size>  (7) 
13

>  <has_macrocycle_12_20>  (7) 
True

>  <has_constrained_ring_8_11>  (7) 
False

>  <passes_basic_filters>  (7) 
True

>  <generation_notes>  (7) 
v5_3_model_guided_anchor_pair=24-20;anchor_scores=0.691,0.079;linker_length=3;target_ring=12;linker_prob=0.278;chemotype=thioether

$$$$
CAND_584cb6401d
     RDKit          3D

 57 62  0  0  0  0  0  0  0  0999 V2000
    6.7379    1.8803    0.3317 N   0  0  0  0  0  0  0  0  0  0  0  0
    6.2025    0.8767    0.1037 C   0  0  0  0  0  0  0  0  0  0  0  0
    5.5290   -0.4007   -0.1773 C   0  0  2  0  0  0  0  0  0  0  0  0
    5.3349   -0.6168   -1.6790 C   0  0  0  0  0  0  0  0  0  0  0  0
    4.0476    0.1358   -1.9897 C   0  0  0  0  0  0  0  0  0  0  0  0
    3.2732    0.0533   -0.7650 N   0  0  0  0  0  0  0  0  0  0  0  0
    1.9151    0.3132   -0.7647 C   0  0  0  0  0  0  0  0  0  0  0  0
    1.3394    0.6290   -1.8110 O   0  0  0  0  0  0  0  0  0  0  0  0
    1.1433    0.1621    0.5787 C   0  0  2  0  0  0  0  0  0  0  0  0
    0.0965   -0.8242    0.4188 N   0  0  0  0  0  0  0  0  0  0  0  0
    0.3099   -2.1811    0.4141 C   0  0  0  0  0  0  0  0  0  0  0  0
    1.4064   -2.6933    0.6152 O   0  0  0  0  0  0  0  0  0  0  0  0
   -0.8926   -2.9572    0.1307 C   0  0  0  0  0  0  0  0  0  0  0  0
   -1.0004   -4.3341   -0.0128 C   0  0  0  0  0  0  0  0  0  0  0  0
   -2.3131   -4.6436   -0.3046 N   0  0  0  0  0  0  0  0  0  0  0  0
   -3.0580   -3.4969   -0.3497 C   0  0  0  0  0  0  0  0  0  0  0  0
   -4.3761   -3.3862   -0.6155 N   0  0  0  0  0  0  0  0  0  0  0  0
   -4.7657   -2.0754   -0.5780 C   0  0  0  0  0  0  0  0  0  0  0  0
   -3.9351   -0.9835   -0.2980 C   0  0  0  0  0  0  0  0  0  0  0  0
   -2.6235   -1.1651   -0.0277 N   0  0  0  0  0  0  0  0  0  0  0  0
   -2.1993   -2.4485   -0.0708 C   0  0  0  0  0  0  0  0  0  0  0  0
   -4.4143    0.4440   -0.2318 C   0  0  0  0  0  0  0  0  0  0  0  0
   -4.9190    1.2441   -1.4039 C   0  0  0  0  0  0  0  0  0  0  0  0
   -3.5100    1.4615   -0.9246 C   0  0  0  0  0  0  0  0  0  0  0  0
   -3.0568    2.6672   -0.1561 C   0  0  0  0  0  0  0  0  0  0  0  0
   -1.9175    2.3321    0.8243 C   0  0  0  0  0  0  0  0  0  0  0  0
   -0.5561    2.1136    0.1434 C   0  0  0  0  0  0  0  0  0  0  0  0
    0.5223    1.4948    1.0537 C   0  0  0  0  0  0  0  0  0  0  0  0
    0.4715    1.7271    2.5618 C   0  0  0  0  0  0  0  0  0  0  0  0
    1.4613    2.4818    1.7350 C   0  0  0  0  0  0  0  0  0  0  0  0
    4.0961   -0.3905    0.3538 C   0  0  0  0  0  0  0  0  0  0  0  0
    6.1100   -1.2134    0.2717 H   0  0  0  0  0  0  0  0  0  0  0  0
    6.1731   -0.2764   -2.2951 H   0  0  0  0  0  0  0  0  0  0  0  0
    5.1831   -1.6862   -1.8732 H   0  0  0  0  0  0  0  0  0  0  0  0
    4.2382    1.1950   -2.1953 H   0  0  0  0  0  0  0  0  0  0  0  0
    3.5031   -0.2943   -2.8358 H   0  0  0  0  0  0  0  0  0  0  0  0
    1.8102   -0.2207    1.3552 H   0  0  0  0  0  0  0  0  0  0  0  0
   -0.8427   -0.4955    0.2084 H   0  0  0  0  0  0  0  0  0  0  0  0
   -0.2513   -5.1125    0.0580 H   0  0  0  0  0  0  0  0  0  0  0  0
   -2.6874   -5.5669   -0.4715 H   0  0  0  0  0  0  0  0  0  0  0  0
   -5.8203   -1.9146   -0.7848 H   0  0  0  0  0  0  0  0  0  0  0  0
   -4.8216    0.7311    0.7357 H   0  0  0  0  0  0  0  0  0  0  0  0
   -5.0542    0.7419   -2.3557 H   0  0  0  0  0  0  0  0  0  0  0  0
   -5.6498    2.0221   -1.2131 H   0  0  0  0  0  0  0  0  0  0  0  0
   -2.7340    1.1055   -1.5968 H   0  0  0  0  0  0  0  0  0  0  0  0
   -2.7351    3.4476   -0.8551 H   0  0  0  0  0  0  0  0  0  0  0  0
   -3.8981    3.0789    0.4148 H   0  0  0  0  0  0  0  0  0  0  0  0
   -1.8240    3.1690    1.5269 H   0  0  0  0  0  0  0  0  0  0  0  0
   -2.1870    1.4483    1.4145 H   0  0  0  0  0  0  0  0  0  0  0  0
   -0.7012    1.4810   -0.7355 H   0  0  0  0  0  0  0  0  0  0  0  0
   -0.1924    3.0728   -0.2463 H   0  0  0  0  0  0  0  0  0  0  0  0
   -0.3397    2.2911    3.0058 H   0  0  0  0  0  0  0  0  0  0  0  0
    0.8434    0.9469    3.2187 H   0  0  0  0  0  0  0  0  0  0  0  0
    1.2940    3.5451    1.5948 H   0  0  0  0  0  0  0  0  0  0  0  0
    2.5103    2.2282    1.8397 H   0  0  0  0  0  0  0  0  0  0  0  0
    3.7736   -1.4043    0.6132 H   0  0  0  0  0  0  0  0  0  0  0  0
    3.9504    0.2605    1.2212 H   0  0  0  0  0  0  0  0  0  0  0  0
  1  2  3  0
  2  3  1  0
  3  4  1  0
  4  5  1  0
  5  6  1  0
  6  7  1  0
  7  8  2  0
  7  9  1  0
  9 10  1  0
 10 11  1  0
 11 12  2  0
 11 13  1  0
 13 14  2  0
 14 15  1  0
 15 16  1  0
 16 17  2  0
 17 18  1  0
 18 19  2  0
 19 20  1  0
 20 21  2  0
 19 22  1  0
 22 23  1  0
 23 24  1  0
 24 25  1  0
 25 26  1  0
 26 27  1  0
 27 28  1  0
 28 29  1  0
 29 30  1  0
  6 31  1  0
 31  3  1  0
 28  9  1  0
 21 13  1  0
 24 22  1  0
 30 28  1  0
 21 16  1  0
  3 32  1  1
  4 33  1  0
  4 34  1  0
  5 35  1  0
  5 36  1  0
  9 37  1  1
 10 38  1  0
 14 39  1  0
 15 40  1  0
 18 41  1  0
 22 42  1  0
 23 43  1  0
 23 44  1  0
 24 45  1  0
 25 46  1  0
 25 47  1  0
 26 48  1  0
 26 49  1  0
 27 50  1  0
 27 51  1  0
 29 52  1  0
 29 53  1  0
 30 54  1  0
 30 55  1  0
 31 56  1  0
 31 57  1  0
M  END
>  <candidate_id>  (8) 
CAND_584cb6401d

>  <source_generator>  (8) 
v5_3_model_guided_macrocycle

>  <parent_mol_id>  (8) 
JAK2_69b6c7ad6e

>  <canonical_smiles>  (8) 
N#C[C@@H]1CCN(C(=O)[C@@H]2NC(=O)c3c[nH]c4ncc(nc34)C3CC3CCCC23CC3)C1

>  <inchikey>  (8) 
HOMDVHDDTYNNLA-URGFFDDHSA-N

>  <valid_rdkit>  (8) 
True

>  <unique_flag>  (8) 
True

>  <novel_flag>  (8) 
True

>  <mw>  (8) 
418.501

>  <logp>  (8) 
2.496

>  <tpsa>  (8) 
114.77

>  <hbd>  (8) 
2

>  <hba>  (8) 
5

>  <rotatable_bonds>  (8) 
1

>  <qed>  (8) 
0.7384

>  <sa_score>  (8) 
4.906

>  <murcko_scaffold>  (8) 
O=C1N[C@@H](C(=O)N2CCCC2)C2(CCCC3CC3c3cnc4[nH]cc1c4n3)CC2

>  <max_ring_size>  (8) 
13

>  <has_macrocycle_12_20>  (8) 
True

>  <has_constrained_ring_8_11>  (8) 
False

>  <passes_basic_filters>  (8) 
True

>  <generation_notes>  (8) 
v5_3_model_guided_anchor_pair=24-20;anchor_scores=0.691,0.079;linker_length=3;target_ring=12;linker_prob=0.278;chemotype=oxa_aza

$$$$
CAND_010738c49b
     RDKit          3D

 56 61  0  0  0  0  0  0  0  0999 V2000
   -0.0384    2.9192   -3.4028 N   0  0  0  0  0  0  0  0  0  0  0  0
   -0.4975    3.1224   -2.3568 C   0  0  0  0  0  0  0  0  0  0  0  0
   -1.0811    3.3797   -1.0305 C   0  0  2  0  0  0  0  0  0  0  0  0
   -0.0161    3.3583    0.0671 C   0  0  0  0  0  0  0  0  0  0  0  0
    0.0934    1.8676    0.4001 C   0  0  0  0  0  0  0  0  0  0  0  0
    0.8695    1.5688    1.6956 C   0  0  0  0  0  0  0  0  0  0  0  0
    2.2902    1.9593    1.6054 N   0  0  0  0  0  0  0  0  0  0  0  0
    3.1792    0.8231    1.3094 C   0  0  0  0  0  0  0  0  0  0  0  0
    3.1735    0.3340   -0.1361 C   0  0  0  0  0  0  0  0  0  0  0  0
    4.3487    0.7825   -1.0168 C   0  0  0  0  0  0  0  0  0  0  0  0
    2.9909    1.3305   -1.2810 C   0  0  0  0  0  0  0  0  0  0  0  0
    2.6287   -1.0927   -0.3088 C   0  0  0  0  0  0  0  0  0  0  0  0
    3.4828   -2.1610   -0.6334 C   0  0  0  0  0  0  0  0  0  0  0  0
    3.1254   -3.4661   -0.7527 N   0  0  0  0  0  0  0  0  0  0  0  0
    1.8208   -3.6237   -0.4697 C   0  0  0  0  0  0  0  0  0  0  0  0
    1.1564   -4.8153   -0.4383 N   0  0  0  0  0  0  0  0  0  0  0  0
   -0.1324   -4.6072   -0.0211 C   0  0  0  0  0  0  0  0  0  0  0  0
   -0.3194   -3.2445    0.1814 C   0  0  0  0  0  0  0  0  0  0  0  0
    0.9232   -2.6188   -0.1273 C   0  0  0  0  0  0  0  0  0  0  0  0
    1.3040   -1.3106   -0.0674 N   0  0  0  0  0  0  0  0  0  0  0  0
   -1.5454   -2.6532    0.6942 C   0  0  0  0  0  0  0  0  0  0  0  0
   -2.3762   -3.3147    1.3076 O   0  0  0  0  0  0  0  0  0  0  0  0
   -1.6751   -1.3115    0.4574 N   0  0  0  0  0  0  0  0  0  0  0  0
   -2.6636   -0.4806    1.1291 C   0  0  2  0  0  0  0  0  0  0  0  0
   -3.9461   -0.3083    0.3478 C   0  0  0  0  0  0  0  0  0  0  0  0
   -4.7534   -1.4900   -0.1398 C   0  0  0  0  0  0  0  0  0  0  0  0
   -4.0729   -0.5920   -1.1337 C   0  0  0  0  0  0  0  0  0  0  0  0
   -1.9736    0.8811    1.3958 C   0  0  0  0  0  0  0  0  0  0  0  0
   -2.1420    1.5423    2.4180 O   0  0  0  0  0  0  0  0  0  0  0  0
   -1.2842    1.3924    0.2983 N   0  0  0  0  0  0  0  0  0  0  0  0
   -2.0314    2.2507   -0.6192 C   0  0  0  0  0  0  0  0  0  0  0  0
   -1.6035    4.3422   -1.0568 H   0  0  0  0  0  0  0  0  0  0  0  0
   -0.3816    3.9139    0.9403 H   0  0  0  0  0  0  0  0  0  0  0  0
    0.9384    3.7954   -0.2423 H   0  0  0  0  0  0  0  0  0  0  0  0
    0.5906    1.3599   -0.4297 H   0  0  0  0  0  0  0  0  0  0  0  0
    0.4230    2.1531    2.5099 H   0  0  0  0  0  0  0  0  0  0  0  0
    0.7592    0.5194    1.9929 H   0  0  0  0  0  0  0  0  0  0  0  0
    2.5635    2.3126    2.5244 H   0  0  0  0  0  0  0  0  0  0  0  0
    4.1988    1.1517    1.5485 H   0  0  0  0  0  0  0  0  0  0  0  0
    2.9844   -0.0013    2.0079 H   0  0  0  0  0  0  0  0  0  0  0  0
    5.0855    1.4626   -0.6011 H   0  0  0  0  0  0  0  0  0  0  0  0
    4.7592    0.1274   -1.7767 H   0  0  0  0  0  0  0  0  0  0  0  0
    2.8323    2.3785   -1.0530 H   0  0  0  0  0  0  0  0  0  0  0  0
    2.4699    1.0012   -2.1743 H   0  0  0  0  0  0  0  0  0  0  0  0
    4.5414   -1.9841   -0.8017 H   0  0  0  0  0  0  0  0  0  0  0  0
    1.5859   -5.7066   -0.6428 H   0  0  0  0  0  0  0  0  0  0  0  0
   -0.8137   -5.4379    0.1169 H   0  0  0  0  0  0  0  0  0  0  0  0
   -0.9418   -0.8376   -0.0623 H   0  0  0  0  0  0  0  0  0  0  0  0
   -2.8905   -0.9253    2.1053 H   0  0  0  0  0  0  0  0  0  0  0  0
   -4.5314    0.5106    0.7587 H   0  0  0  0  0  0  0  0  0  0  0  0
   -4.3650   -2.4930   -0.0118 H   0  0  0  0  0  0  0  0  0  0  0  0
   -5.8334   -1.4336   -0.0572 H   0  0  0  0  0  0  0  0  0  0  0  0
   -4.6981    0.0662   -1.7267 H   0  0  0  0  0  0  0  0  0  0  0  0
   -3.2273   -0.9980   -1.6765 H   0  0  0  0  0  0  0  0  0  0  0  0
   -2.3756    1.6478   -1.4650 H   0  0  0  0  0  0  0  0  0  0  0  0
   -2.9086    2.6530   -0.0987 H   0  0  0  0  0  0  0  0  0  0  0  0
  1  2  3  0
  2  3  1  0
  3  4  1  0
  4  5  1  0
  5  6  1  0
  6  7  1  0
  7  8  1  0
  8  9  1  0
  9 10  1  0
 10 11  1  0
  9 12  1  0
 12 13  2  0
 13 14  1  0
 14 15  2  0
 15 16  1  0
 16 17  1  0
 17 18  2  0
 18 19  1  0
 19 20  2  0
 18 21  1  0
 21 22  2  0
 21 23  1  0
 23 24  1  0
 24 25  1  0
 25 26  1  0
 26 27  1  0
 24 28  1  0
 28 29  2  0
 28 30  1  0
 30 31  1  0
 31  3  1  0
 30  5  1  0
 11  9  1  0
 20 12  1  0
 27 25  1  0
 19 15  1  0
  3 32  1  6
  4 33  1  0
  4 34  1  0
  5 35  1  0
  6 36  1  0
  6 37  1  0
  7 38  1  0
  8 39  1  0
  8 40  1  0
 10 41  1  0
 10 42  1  0
 11 43  1  0
 11 44  1  0
 13 45  1  0
 16 46  1  0
 17 47  1  0
 23 48  1  0
 24 49  1  1
 25 50  1  0
 26 51  1  0
 26 52  1  0
 27 53  1  0
 27 54  1  0
 31 55  1  0
 31 56  1  0
M  END
>  <candidate_id>  (9) 
CAND_010738c49b

>  <source_generator>  (9) 
v5_3_model_guided_macrocycle

>  <parent_mol_id>  (9) 
JAK2_69b6c7ad6e

>  <canonical_smiles>  (9) 
N#C[C@@H]1CC2CNCC3(CC3)c3cnc4[nH]cc(c4n3)C(=O)N[C@H](C3CC3)C(=O)N2C1

>  <inchikey>  (9) 
GDOIQDMSOKVZOZ-WAPNNBGYSA-N

>  <valid_rdkit>  (9) 
True

>  <unique_flag>  (9) 
True

>  <novel_flag>  (9) 
True

>  <mw>  (9) 
419.489

>  <logp>  (9) 
0.8418

>  <tpsa>  (9) 
126.8

>  <hbd>  (9) 
3

>  <hba>  (9) 
6

>  <rotatable_bonds>  (9) 
1

>  <qed>  (9) 
0.6287

>  <sa_score>  (9) 
4.661

>  <murcko_scaffold>  (9) 
O=C1N[C@H](C2CC2)C(=O)N2CCCC2CNCC2(CC2)c2cnc3[nH]cc1c3n2

>  <max_ring_size>  (9) 
14

>  <has_macrocycle_12_20>  (9) 
True

>  <has_constrained_ring_8_11>  (9) 
False

>  <passes_basic_filters>  (9) 
True

>  <generation_notes>  (9) 
v5_3_model_guided_anchor_pair=19-4;anchor_scores=0.691,0.079;linker_length=3;target_ring=13;linker_prob=0.234;chemotype=aza

$$$$
CAND_1e356c92c8
     RDKit          3D

 55 60  0  0  0  0  0  0  0  0999 V2000
   -3.7068    5.3809    1.0006 N   0  0  0  0  0  0  0  0  0  0  0  0
   -2.7879    4.6837    0.8789 C   0  0  0  0  0  0  0  0  0  0  0  0
   -1.6282    3.8032    0.7274 C   0  0  2  0  0  0  0  0  0  0  0  0
   -0.9162    4.0020   -0.6207 C   0  0  0  0  0  0  0  0  0  0  0  0
   -0.2206    2.6575   -0.8542 C   0  0  0  0  0  0  0  0  0  0  0  0
    1.1467    2.6149   -0.1183 C   0  0  0  0  0  0  0  0  0  0  0  0
    1.7513    1.3352    0.0304 O   0  0  0  0  0  0  0  0  0  0  0  0
    2.2315    0.7391   -1.1730 C   0  0  0  0  0  0  0  0  0  0  0  0
    3.3431   -0.2595   -0.8341 C   0  0  0  0  0  0  0  0  0  0  0  0
    4.7505    0.3173   -0.7634 C   0  0  0  0  0  0  0  0  0  0  0  0
    4.3631   -0.5461   -1.9283 C   0  0  0  0  0  0  0  0  0  0  0  0
    2.9212   -1.4314    0.0828 C   0  0  0  0  0  0  0  0  0  0  0  0
    3.8401   -2.2711    0.7417 C   0  0  0  0  0  0  0  0  0  0  0  0
    3.5461   -3.2915    1.6037 N   0  0  0  0  0  0  0  0  0  0  0  0
    2.2158   -3.3808    1.7828 C   0  0  0  0  0  0  0  0  0  0  0  0
    1.5586   -4.2367    2.6223 N   0  0  0  0  0  0  0  0  0  0  0  0
    0.2074   -3.9763    2.5820 C   0  0  0  0  0  0  0  0  0  0  0  0
   -0.0159   -2.9534    1.6701 C   0  0  0  0  0  0  0  0  0  0  0  0
    1.2611   -2.5971    1.1586 C   0  0  0  0  0  0  0  0  0  0  0  0
    1.5933   -1.6372    0.2584 N   0  0  0  0  0  0  0  0  0  0  0  0
   -1.2927   -2.3242    1.3573 C   0  0  0  0  0  0  0  0  0  0  0  0
   -2.2975   -2.4839    2.0405 O   0  0  0  0  0  0  0  0  0  0  0  0
   -1.2339   -1.5095    0.2607 N   0  0  0  0  0  0  0  0  0  0  0  0
   -2.2552   -0.5626   -0.1401 C   0  0  2  0  0  0  0  0  0  0  0  0
   -3.2751   -1.2479   -1.0079 C   0  0  0  0  0  0  0  0  0  0  0  0
   -4.4665   -1.9477   -0.4007 C   0  0  0  0  0  0  0  0  0  0  0  0
   -4.6598   -0.6668   -1.1628 C   0  0  0  0  0  0  0  0  0  0  0  0
   -1.4521    0.5019   -0.9316 C   0  0  0  0  0  0  0  0  0  0  0  0
   -0.9457    0.2269   -2.0248 O   0  0  0  0  0  0  0  0  0  0  0  0
   -1.2036    1.7154   -0.3202 N   0  0  0  0  0  0  0  0  0  0  0  0
   -2.0288    2.3255    0.7126 C   0  0  0  0  0  0  0  0  0  0  0  0
   -0.9236    3.9831    1.5481 H   0  0  0  0  0  0  0  0  0  0  0  0
   -0.2262    4.8522   -0.6110 H   0  0  0  0  0  0  0  0  0  0  0  0
   -1.6488    4.1794   -1.4198 H   0  0  0  0  0  0  0  0  0  0  0  0
   -0.0560    2.4742   -1.9212 H   0  0  0  0  0  0  0  0  0  0  0  0
    1.0255    2.9890    0.9039 H   0  0  0  0  0  0  0  0  0  0  0  0
    1.8540    3.2971   -0.6062 H   0  0  0  0  0  0  0  0  0  0  0  0
    2.6137    1.5155   -1.8475 H   0  0  0  0  0  0  0  0  0  0  0  0
    1.4206    0.2221   -1.6878 H   0  0  0  0  0  0  0  0  0  0  0  0
    5.4628   -0.0677   -0.0448 H   0  0  0  0  0  0  0  0  0  0  0  0
    4.8784    1.3812   -0.9395 H   0  0  0  0  0  0  0  0  0  0  0  0
    4.7969   -1.5376   -1.9992 H   0  0  0  0  0  0  0  0  0  0  0  0
    4.2307   -0.0708   -2.8947 H   0  0  0  0  0  0  0  0  0  0  0  0
    4.9072   -2.1412    0.5890 H   0  0  0  0  0  0  0  0  0  0  0  0
    2.0201   -4.9193    3.2063 H   0  0  0  0  0  0  0  0  0  0  0  0
   -0.4834   -4.5257    3.2091 H   0  0  0  0  0  0  0  0  0  0  0  0
   -0.3443   -1.4542   -0.2362 H   0  0  0  0  0  0  0  0  0  0  0  0
   -2.7155   -0.1481    0.7601 H   0  0  0  0  0  0  0  0  0  0  0  0
   -2.8257   -1.7032   -1.8854 H   0  0  0  0  0  0  0  0  0  0  0  0
   -4.5863   -1.9278    0.6772 H   0  0  0  0  0  0  0  0  0  0  0  0
   -4.7934   -2.8738   -0.8600 H   0  0  0  0  0  0  0  0  0  0  0  0
   -5.1252   -0.7248   -2.1407 H   0  0  0  0  0  0  0  0  0  0  0  0
   -4.9280    0.2180   -0.5973 H   0  0  0  0  0  0  0  0  0  0  0  0
   -3.0839    2.1604    0.4665 H   0  0  0  0  0  0  0  0  0  0  0  0
   -1.8127    1.8424    1.6715 H   0  0  0  0  0  0  0  0  0  0  0  0
  1  2  3  0
  2  3  1  0
  3  4  1  0
  4  5  1  0
  5  6  1  0
  6  7  1  0
  7  8  1  0
  8  9  1  0
  9 10  1  0
 10 11  1  0
  9 12  1  0
 12 13  2  0
 13 14  1  0
 14 15  2  0
 15 16  1  0
 16 17  1  0
 17 18  2  0
 18 19  1  0
 19 20  2  0
 18 21  1  0
 21 22  2  0
 21 23  1  0
 23 24  1  0
 24 25  1  0
 25 26  1  0
 26 27  1  0
 24 28  1  0
 28 29  2  0
 28 30  1  0
 30 31  1  0
 31  3  1  0
 30  5  1  0
 11  9  1  0
 20 12  1  0
 27 25  1  0
 19 15  1  0
  3 32  1  1
  4 33  1  0
  4 34  1  0
  5 35  1  0
  6 36  1  0
  6 37  1  0
  8 38  1  0
  8 39  1  0
 10 40  1  0
 10 41  1  0
 11 42  1  0
 11 43  1  0
 13 44  1  0
 16 45  1  0
 17 46  1  0
 23 47  1  0
 24 48  1  1
 25 49  1  0
 26 50  1  0
 26 51  1  0
 27 52  1  0
 27 53  1  0
 31 54  1  0
 31 55  1  0
M  END
>  <candidate_id>  (10) 
CAND_1e356c92c8

>  <source_generator>  (10) 
v5_3_model_guided_macrocycle

>  <parent_mol_id>  (10) 
JAK2_69b6c7ad6e

>  <canonical_smiles>  (10) 
N#C[C@@H]1CC2COCC3(CC3)c3cnc4[nH]cc(c4n3)C(=O)N[C@H](C3CC3)C(=O)N2C1

>  <inchikey>  (10) 
CJARQMPCFPOYTL-WAPNNBGYSA-N

>  <valid_rdkit>  (10) 
True

>  <unique_flag>  (10) 
True

>  <novel_flag>  (10) 
True

>  <mw>  (10) 
420.473

>  <logp>  (10) 
1.2688

>  <tpsa>  (10) 
124.0

>  <hbd>  (10) 
2

>  <hba>  (10) 
6

>  <rotatable_bonds>  (10) 
1

>  <qed>  (10) 
0.716

>  <sa_score>  (10) 
4.667

>  <murcko_scaffold>  (10) 
O=C1N[C@H](C2CC2)C(=O)N2CCCC2COCC2(CC2)c2cnc3[nH]cc1c3n2

>  <max_ring_size>  (10) 
14

>  <has_macrocycle_12_20>  (10) 
True

>  <has_constrained_ring_8_11>  (10) 
False

>  <passes_basic_filters>  (10) 
True

>  <generation_notes>  (10) 
v5_3_model_guided_anchor_pair=19-4;anchor_scores=0.691,0.079;linker_length=3;target_ring=13;linker_prob=0.234;chemotype=oxa

$$$$
CAND_6f5c819abf
     RDKit          3D

 57 62  0  0  0  0  0  0  0  0999 V2000
   -5.6440   -3.9242   -0.3974 N   0  0  0  0  0  0  0  0  0  0  0  0
   -4.5983   -3.5283   -0.7057 C   0  0  0  0  0  0  0  0  0  0  0  0
   -3.2850   -3.0214   -1.1048 C   0  0  2  0  0  0  0  0  0  0  0  0
   -2.1436   -3.6224   -0.2690 C   0  0  0  0  0  0  0  0  0  0  0  0
   -1.0579   -2.5612   -0.4175 C   0  0  0  0  0  0  0  0  0  0  0  0
    0.1746   -2.7671    0.4705 C   0  0  0  0  0  0  0  0  0  0  0  0
    1.3474   -1.8743    0.0154 C   0  0  0  0  0  0  0  0  0  0  0  0
    2.2150   -1.3900    1.1826 C   0  0  0  0  0  0  0  0  0  0  0  0
    3.4950   -0.6744    0.7316 C   0  0  0  0  0  0  0  0  0  0  0  0
    4.6386   -1.5761    0.2863 C   0  0  0  0  0  0  0  0  0  0  0  0
    4.7137   -0.8953    1.6211 C   0  0  0  0  0  0  0  0  0  0  0  0
    3.3157    0.7190    0.0641 C   0  0  0  0  0  0  0  0  0  0  0  0
    4.4071    1.4779   -0.4043 C   0  0  0  0  0  0  0  0  0  0  0  0
    4.3530    2.6850   -1.0373 N   0  0  0  0  0  0  0  0  0  0  0  0
    3.0759    3.0770   -1.1856 C   0  0  0  0  0  0  0  0  0  0  0  0
    2.6505    4.2127   -1.8141 N   0  0  0  0  0  0  0  0  0  0  0  0
    1.2774    4.2489   -1.8176 C   0  0  0  0  0  0  0  0  0  0  0  0
    0.8045    3.1282   -1.1465 C   0  0  0  0  0  0  0  0  0  0  0  0
    1.9551    2.3905   -0.7444 C   0  0  0  0  0  0  0  0  0  0  0  0
    2.0551    1.2040   -0.0855 N   0  0  0  0  0  0  0  0  0  0  0  0
   -0.5977    2.7805   -0.9622 C   0  0  0  0  0  0  0  0  0  0  0  0
   -1.4993    3.2976   -1.6128 O   0  0  0  0  0  0  0  0  0  0  0  0
   -0.8019    1.8088   -0.0250 N   0  0  0  0  0  0  0  0  0  0  0  0
   -2.0602    1.1136    0.1872 C   0  0  2  0  0  0  0  0  0  0  0  0
   -2.8327    1.7934    1.2822 C   0  0  0  0  0  0  0  0  0  0  0  0
   -4.3386    1.7034    1.3342 C   0  0  0  0  0  0  0  0  0  0  0  0
   -3.6784    3.0086    0.9884 C   0  0  0  0  0  0  0  0  0  0  0  0
   -1.5810   -0.2969    0.5998 C   0  0  0  0  0  0  0  0  0  0  0  0
   -0.8920   -0.4434    1.6112 O   0  0  0  0  0  0  0  0  0  0  0  0
   -1.8326   -1.3236   -0.2946 N   0  0  0  0  0  0  0  0  0  0  0  0
   -3.1572   -1.5085   -0.8752 C   0  0  0  0  0  0  0  0  0  0  0  0
   -3.1092   -3.2401   -2.1658 H   0  0  0  0  0  0  0  0  0  0  0  0
   -1.8289   -4.6016   -0.6442 H   0  0  0  0  0  0  0  0  0  0  0  0
   -2.4355   -3.7367    0.7833 H   0  0  0  0  0  0  0  0  0  0  0  0
   -0.7164   -2.5841   -1.4633 H   0  0  0  0  0  0  0  0  0  0  0  0
   -0.0695   -2.6187    1.5270 H   0  0  0  0  0  0  0  0  0  0  0  0
    0.5017   -3.8120    0.3898 H   0  0  0  0  0  0  0  0  0  0  0  0
    1.9630   -2.4427   -0.6932 H   0  0  0  0  0  0  0  0  0  0  0  0
    0.9733   -1.0134   -0.5463 H   0  0  0  0  0  0  0  0  0  0  0  0
    1.6450   -0.7200    1.8358 H   0  0  0  0  0  0  0  0  0  0  0  0
    2.4777   -2.2599    1.7993 H   0  0  0  0  0  0  0  0  0  0  0  0
    4.4773   -2.6497    0.2774 H   0  0  0  0  0  0  0  0  0  0  0  0
    5.3063   -1.2487   -0.5017 H   0  0  0  0  0  0  0  0  0  0  0  0
    5.4344   -0.0974    1.7570 H   0  0  0  0  0  0  0  0  0  0  0  0
    4.6021   -1.5077    2.5108 H   0  0  0  0  0  0  0  0  0  0  0  0
    5.4218    1.1095   -0.2828 H   0  0  0  0  0  0  0  0  0  0  0  0
    3.2702    4.8913   -2.2332 H   0  0  0  0  0  0  0  0  0  0  0  0
    0.7436    5.0601   -2.2967 H   0  0  0  0  0  0  0  0  0  0  0  0
    0.0087    1.4498    0.4799 H   0  0  0  0  0  0  0  0  0  0  0  0
   -2.6161    1.0935   -0.7548 H   0  0  0  0  0  0  0  0  0  0  0  0
   -2.2979    1.7826    2.2274 H   0  0  0  0  0  0  0  0  0  0  0  0
   -4.8064    1.6158    2.3088 H   0  0  0  0  0  0  0  0  0  0  0  0
   -4.8690    1.1886    0.5419 H   0  0  0  0  0  0  0  0  0  0  0  0
   -3.7433    3.3606   -0.0358 H   0  0  0  0  0  0  0  0  0  0  0  0
   -3.6930    3.8027    1.7264 H   0  0  0  0  0  0  0  0  0  0  0  0
   -3.2021   -0.9631   -1.8240 H   0  0  0  0  0  0  0  0  0  0  0  0
   -3.9161   -1.1007   -0.1984 H   0  0  0  0  0  0  0  0  0  0  0  0
  1  2  3  0
  2  3  1  0
  3  4  1  0
  4  5  1  0
  5  6  1  0
  6  7  1  0
  7  8  1  0
  8  9  1  0
  9 10  1  0
 10 11  1  0
  9 12  1  0
 12 13  2  0
 13 14  1  0
 14 15  2  0
 15 16  1  0
 16 17  1  0
 17 18  2  0
 18 19  1  0
 19 20  2  0
 18 21  1  0
 21 22  2  0
 21 23  1  0
 23 24  1  0
 24 25  1  0
 25 26  1  0
 26 27  1  0
 24 28  1  0
 28 29  2  0
 28 30  1  0
 30 31  1  0
 31  3  1  0
 30  5  1  0
 11  9  1  0
 20 12  1  0
 27 25  1  0
 19 15  1  0
  3 32  1  6
  4 33  1  0
  4 34  1  0
  5 35  1  0
  6 36  1  0
  6 37  1  0
  7 38  1  0
  7 39  1  0
  8 40  1  0
  8 41  1  0
 10 42  1  0
 10 43  1  0
 11 44  1  0
 11 45  1  0
 13 46  1  0
 16 47  1  0
 17 48  1  0
 23 49  1  0
 24 50  1  6
 25 51  1  0
 26 52  1  0
 26 53  1  0
 27 54  1  0
 27 55  1  0
 31 56  1  0
 31 57  1  0
M  END
>  <candidate_id>  (11) 
CAND_6f5c819abf

>  <source_generator>  (11) 
v5_3_model_guided_macrocycle

>  <parent_mol_id>  (11) 
JAK2_69b6c7ad6e

>  <canonical_smiles>  (11) 
N#C[C@@H]1CC2CCCC3(CC3)c3cnc4[nH]cc(c4n3)C(=O)N[C@H](C3CC3)C(=O)N2C1

>  <inchikey>  (11) 
SZNOMDJPNRVXHW-PLXAZLAVSA-N

>  <valid_rdkit>  (11) 
True

>  <unique_flag>  (11) 
True

>  <novel_flag>  (11) 
True

>  <mw>  (11) 
418.501

>  <logp>  (11) 
2.4225

>  <tpsa>  (11) 
114.77

>  <hbd>  (11) 
2

>  <hba>  (11) 
5

>  <rotatable_bonds>  (11) 
1

>  <qed>  (11) 
0.7381

>  <sa_score>  (11) 
4.656

>  <murcko_scaffold>  (11) 
O=C1N[C@H](C2CC2)C(=O)N2CCCC2CCCC2(CC2)c2cnc3[nH]cc1c3n2

>  <max_ring_size>  (11) 
14

>  <has_macrocycle_12_20>  (11) 
True

>  <has_constrained_ring_8_11>  (11) 
False

>  <passes_basic_filters>  (11) 
True

>  <generation_notes>  (11) 
v5_3_model_guided_anchor_pair=19-4;anchor_scores=0.691,0.079;linker_length=3;target_ring=13;linker_prob=0.234;chemotype=alkyl

$$$$
CAND_bb18276fcc
     RDKit          3D

 55 60  0  0  0  0  0  0  0  0999 V2000
   -4.5551    4.2042    0.8461 N   0  0  0  0  0  0  0  0  0  0  0  0
   -3.5803    3.7638    1.2951 C   0  0  0  0  0  0  0  0  0  0  0  0
   -2.3429    3.2142    1.8709 C   0  0  2  0  0  0  0  0  0  0  0  0
   -1.1063    3.7348    1.1382 C   0  0  0  0  0  0  0  0  0  0  0  0
   -0.9371    2.7780   -0.0579 C   0  0  0  0  0  0  0  0  0  0  0  0
    0.5367    2.6114   -0.5064 C   0  0  0  0  0  0  0  0  0  0  0  0
    1.6569    1.9188    0.7702 S   0  0  0  0  0  0  0  0  0  0  0  0
    3.1585    1.6549   -0.2206 C   0  0  0  0  0  0  0  0  0  0  0  0
    3.1789    0.3562   -1.0077 C   0  0  0  0  0  0  0  0  0  0  0  0
    4.1014    0.2922   -2.2229 C   0  0  0  0  0  0  0  0  0  0  0  0
    2.6211    0.3601   -2.4259 C   0  0  0  0  0  0  0  0  0  0  0  0
    3.0213   -0.9210   -0.1815 C   0  0  0  0  0  0  0  0  0  0  0  0
    4.1224   -1.5995    0.3665 C   0  0  0  0  0  0  0  0  0  0  0  0
    4.0705   -2.7221    1.1402 N   0  0  0  0  0  0  0  0  0  0  0  0
    2.7907   -3.0853    1.3535 C   0  0  0  0  0  0  0  0  0  0  0  0
    2.3538   -4.1255    2.1257 N   0  0  0  0  0  0  0  0  0  0  0  0
    0.9777   -4.1229    2.1677 C   0  0  0  0  0  0  0  0  0  0  0  0
    0.5149   -3.0769    1.3803 C   0  0  0  0  0  0  0  0  0  0  0  0
    1.6696   -2.4486    0.8457 C   0  0  0  0  0  0  0  0  0  0  0  0
    1.7613   -1.3693    0.0283 N   0  0  0  0  0  0  0  0  0  0  0  0
   -0.8703   -2.6604    1.2094 C   0  0  0  0  0  0  0  0  0  0  0  0
   -1.7879   -3.1125    1.8858 O   0  0  0  0  0  0  0  0  0  0  0  0
   -1.0347   -1.6782    0.2691 N   0  0  0  0  0  0  0  0  0  0  0  0
   -2.2394   -0.8859    0.1134 C   0  0  2  0  0  0  0  0  0  0  0  0
   -3.2550   -1.6609   -0.6863 C   0  0  0  0  0  0  0  0  0  0  0  0
   -3.1008   -1.9609   -2.1581 C   0  0  0  0  0  0  0  0  0  0  0  0
   -4.1767   -1.0148   -1.6930 C   0  0  0  0  0  0  0  0  0  0  0  0
   -1.7365    0.4552   -0.4900 C   0  0  0  0  0  0  0  0  0  0  0  0
   -1.3137    0.5252   -1.6487 O   0  0  0  0  0  0  0  0  0  0  0  0
   -1.6184    1.5451    0.3576 N   0  0  0  0  0  0  0  0  0  0  0  0
   -2.2604    1.7054    1.6547 C   0  0  0  0  0  0  0  0  0  0  0  0
   -2.3093    3.4610    2.9375 H   0  0  0  0  0  0  0  0  0  0  0  0
   -0.2533    3.6840    1.8229 H   0  0  0  0  0  0  0  0  0  0  0  0
   -1.1950    4.7762    0.8094 H   0  0  0  0  0  0  0  0  0  0  0  0
   -1.5060    3.1683   -0.9125 H   0  0  0  0  0  0  0  0  0  0  0  0
    0.9308    3.5925   -0.7933 H   0  0  0  0  0  0  0  0  0  0  0  0
    0.5828    1.9710   -1.3871 H   0  0  0  0  0  0  0  0  0  0  0  0
    3.3049    2.5225   -0.8743 H   0  0  0  0  0  0  0  0  0  0  0  0
    4.0055    1.6499    0.4752 H   0  0  0  0  0  0  0  0  0  0  0  0
    4.6866    1.1681   -2.4816 H   0  0  0  0  0  0  0  0  0  0  0  0
    4.5906   -0.6426   -2.4762 H   0  0  0  0  0  0  0  0  0  0  0  0
    2.2147    1.2764   -2.8378 H   0  0  0  0  0  0  0  0  0  0  0  0
    2.1038   -0.5287   -2.7741 H   0  0  0  0  0  0  0  0  0  0  0  0
    5.1289   -1.2313    0.1864 H   0  0  0  0  0  0  0  0  0  0  0  0
    2.9668   -4.7581    2.6199 H   0  0  0  0  0  0  0  0  0  0  0  0
    0.4392   -4.8464    2.7668 H   0  0  0  0  0  0  0  0  0  0  0  0
   -0.2150   -1.3795   -0.2600 H   0  0  0  0  0  0  0  0  0  0  0  0
   -2.6564   -0.7323    1.1107 H   0  0  0  0  0  0  0  0  0  0  0  0
   -3.6783   -2.4576   -0.0788 H   0  0  0  0  0  0  0  0  0  0  0  0
   -3.4012   -2.9433   -2.5053 H   0  0  0  0  0  0  0  0  0  0  0  0
   -2.2548   -1.5503   -2.6967 H   0  0  0  0  0  0  0  0  0  0  0  0
   -5.2041   -1.3600   -1.7336 H   0  0  0  0  0  0  0  0  0  0  0  0
   -4.0594    0.0339   -1.9408 H   0  0  0  0  0  0  0  0  0  0  0  0
   -3.2379    1.2145    1.6784 H   0  0  0  0  0  0  0  0  0  0  0  0
   -1.6040    1.2371    2.3968 H   0  0  0  0  0  0  0  0  0  0  0  0
  1  2  3  0
  2  3  1  0
  3  4  1  0
  4  5  1  0
  5  6  1  0
  6  7  1  0
  7  8  1  0
  8  9  1  0
  9 10  1  0
 10 11  1  0
  9 12  1  0
 12 13  2  0
 13 14  1  0
 14 15  2  0
 15 16  1  0
 16 17  1  0
 17 18  2  0
 18 19  1  0
 19 20  2  0
 18 21  1  0
 21 22  2  0
 21 23  1  0
 23 24  1  0
 24 25  1  0
 25 26  1  0
 26 27  1  0
 24 28  1  0
 28 29  2  0
 28 30  1  0
 30 31  1  0
 31  3  1  0
 30  5  1  0
 11  9  1  0
 20 12  1  0
 27 25  1  0
 19 15  1  0
  3 32  1  1
  4 33  1  0
  4 34  1  0
  5 35  1  0
  6 36  1  0
  6 37  1  0
  8 38  1  0
  8 39  1  0
 10 40  1  0
 10 41  1  0
 11 42  1  0
 11 43  1  0
 13 44  1  0
 16 45  1  0
 17 46  1  0
 23 47  1  0
 24 48  1  1
 25 49  1  0
 26 50  1  0
 26 51  1  0
 27 52  1  0
 27 53  1  0
 31 54  1  0
 31 55  1  0
M  END
>  <candidate_id>  (12) 
CAND_bb18276fcc

>  <source_generator>  (12) 
v5_3_model_guided_macrocycle

>  <parent_mol_id>  (12) 
JAK2_69b6c7ad6e

>  <canonical_smiles>  (12) 
N#C[C@@H]1CC2CSCC3(CC3)c3cnc4[nH]cc(c4n3)C(=O)N[C@H](C3CC3)C(=O)N2C1

>  <inchikey>  (12) 
LPLMSPHZWKDSFN-WAPNNBGYSA-N

>  <valid_rdkit>  (12) 
True

>  <unique_flag>  (12) 
True

>  <novel_flag>  (12) 
True

>  <mw>  (12) 
436.541

>  <logp>  (12) 
1.9854

>  <tpsa>  (12) 
114.77

>  <hbd>  (12) 
2

>  <hba>  (12) 
6

>  <rotatable_bonds>  (12) 
1

>  <qed>  (12) 
0.7065

>  <sa_score>  (12) 
4.756

>  <murcko_scaffold>  (12) 
O=C1N[C@H](C2CC2)C(=O)N2CCCC2CSCC2(CC2)c2cnc3[nH]cc1c3n2

>  <max_ring_size>  (12) 
14

>  <has_macrocycle_12_20>  (12) 
True

>  <has_constrained_ring_8_11>  (12) 
False

>  <passes_basic_filters>  (12) 
True

>  <generation_notes>  (12) 
v5_3_model_guided_anchor_pair=19-4;anchor_scores=0.691,0.079;linker_length=3;target_ring=13;linker_prob=0.234;chemotype=thioether

$$$$
CAND_44327fe5a9
     RDKit          3D

 57 62  0  0  0  0  0  0  0  0999 V2000
    7.6318    1.0641   -1.6226 N   0  0  0  0  0  0  0  0  0  0  0  0
    6.8277    0.3182   -1.2452 C   0  0  0  0  0  0  0  0  0  0  0  0
    5.8124   -0.6273   -0.7854 C   0  0  1  0  0  0  0  0  0  0  0  0
    5.9845   -1.0272    0.6799 C   0  0  0  0  0  0  0  0  0  0  0  0
    4.5996   -1.5353    1.0548 C   0  0  0  0  0  0  0  0  0  0  0  0
    3.6920   -0.7588    0.2301 N   0  0  0  0  0  0  0  0  0  0  0  0
    2.3344   -0.7346    0.4898 C   0  0  0  0  0  0  0  0  0  0  0  0
    1.8536   -1.4310    1.3896 O   0  0  0  0  0  0  0  0  0  0  0  0
    1.4496    0.1617   -0.4192 C   0  0  2  0  0  0  0  0  0  0  0  0
    0.4408    0.8003    0.3953 N   0  0  0  0  0  0  0  0  0  0  0  0
    0.6957    1.8486    1.2404 C   0  0  0  0  0  0  0  0  0  0  0  0
    1.8112    2.3348    1.3944 O   0  0  0  0  0  0  0  0  0  0  0  0
   -0.4906    2.3310    1.9333 C   0  0  0  0  0  0  0  0  0  0  0  0
   -0.5336    3.2368    2.9846 C   0  0  0  0  0  0  0  0  0  0  0  0
   -1.8484    3.4141    3.3540 N   0  0  0  0  0  0  0  0  0  0  0  0
   -2.6568    2.6592    2.5502 C   0  0  0  0  0  0  0  0  0  0  0  0
   -3.9995    2.5819    2.5984 N   0  0  0  0  0  0  0  0  0  0  0  0
   -4.4632    1.7462    1.6206 C   0  0  0  0  0  0  0  0  0  0  0  0
   -3.6885    1.0442    0.6775 C   0  0  0  0  0  0  0  0  0  0  0  0
   -2.3397    1.1533    0.7120 N   0  0  0  0  0  0  0  0  0  0  0  0
   -1.8398    1.9834    1.6611 C   0  0  0  0  0  0  0  0  0  0  0  0
   -4.2859    0.1580   -0.4406 C   0  0  0  0  0  0  0  0  0  0  0  0
   -3.2636   -0.4136   -1.4356 C   0  0  0  0  0  0  0  0  0  0  0  0
   -2.5468   -1.6620   -0.9032 C   0  0  0  0  0  0  0  0  0  0  0  0
   -1.4065   -2.1190   -1.8255 C   0  0  0  0  0  0  0  0  0  0  0  0
   -0.0515   -1.8524   -1.2342 C   0  0  0  0  0  0  0  0  0  0  0  0
    1.1753   -1.8840   -2.1150 C   0  0  0  0  0  0  0  0  0  0  0  0
    0.7130   -0.5731   -1.5224 C   0  0  0  0  0  0  0  0  0  0  0  0
   -5.6425    0.5330   -1.0263 C   0  0  0  0  0  0  0  0  0  0  0  0
   -5.5218   -0.6814   -0.1550 C   0  0  0  0  0  0  0  0  0  0  0  0
    4.4112   -0.0231   -0.7999 C   0  0  0  0  0  0  0  0  0  0  0  0
    5.8267   -1.5313   -1.4077 H   0  0  0  0  0  0  0  0  0  0  0  0
    6.2423   -0.1560    1.2964 H   0  0  0  0  0  0  0  0  0  0  0  0
    6.7613   -1.7835    0.8293 H   0  0  0  0  0  0  0  0  0  0  0  0
    4.3743   -1.4096    2.1181 H   0  0  0  0  0  0  0  0  0  0  0  0
    4.4740   -2.5906    0.7881 H   0  0  0  0  0  0  0  0  0  0  0  0
    2.0538    0.9581   -0.8629 H   0  0  0  0  0  0  0  0  0  0  0  0
   -0.5049    0.4288    0.3652 H   0  0  0  0  0  0  0  0  0  0  0  0
    0.2633    3.7576    3.5003 H   0  0  0  0  0  0  0  0  0  0  0  0
   -2.1872    4.0114    4.0947 H   0  0  0  0  0  0  0  0  0  0  0  0
   -5.5459    1.6582    1.6124 H   0  0  0  0  0  0  0  0  0  0  0  0
   -3.7673   -0.6829   -2.3735 H   0  0  0  0  0  0  0  0  0  0  0  0
   -2.5362    0.3623   -1.7050 H   0  0  0  0  0  0  0  0  0  0  0  0
   -2.1836   -1.4983    0.1175 H   0  0  0  0  0  0  0  0  0  0  0  0
   -3.2834   -2.4725   -0.8360 H   0  0  0  0  0  0  0  0  0  0  0  0
   -1.4994   -1.6710   -2.8219 H   0  0  0  0  0  0  0  0  0  0  0  0
   -1.4892   -3.2042   -1.9643 H   0  0  0  0  0  0  0  0  0  0  0  0
    0.0475   -2.3163   -0.2565 H   0  0  0  0  0  0  0  0  0  0  0  0
    1.0409   -2.0310   -3.1816 H   0  0  0  0  0  0  0  0  0  0  0  0
    2.0564   -2.3765   -1.7200 H   0  0  0  0  0  0  0  0  0  0  0  0
    0.2568    0.1360   -2.2083 H   0  0  0  0  0  0  0  0  0  0  0  0
   -5.8149    0.3781   -2.0869 H   0  0  0  0  0  0  0  0  0  0  0  0
   -6.1793    1.3925   -0.6425 H   0  0  0  0  0  0  0  0  0  0  0  0
   -5.9654   -0.6552    0.8338 H   0  0  0  0  0  0  0  0  0  0  0  0
   -5.6146   -1.6519   -0.6319 H   0  0  0  0  0  0  0  0  0  0  0  0
    4.4027    1.0378   -0.5224 H   0  0  0  0  0  0  0  0  0  0  0  0
    3.9174   -0.1360   -1.7702 H   0  0  0  0  0  0  0  0  0  0  0  0
  1  2  3  0
  2  3  1  0
  3  4  1  0
  4  5  1  0
  5  6  1  0
  6  7  1  0
  7  8  2  0
  7  9  1  0
  9 10  1  0
 10 11  1  0
 11 12  2  0
 11 13  1  0
 13 14  2  0
 14 15  1  0
 15 16  1  0
 16 17  2  0
 17 18  1  0
 18 19  2  0
 19 20  1  0
 20 21  2  0
 19 22  1  0
 22 23  1  0
 23 24  1  0
 24 25  1  0
 25 26  1  0
 26 27  1  0
 27 28  1  0
 22 29  1  0
 29 30  1  0
  6 31  1  0
 31  3  1  0
 28  9  1  0
 21 13  1  0
 30 22  1  0
 21 16  1  0
 28 26  1  0
  3 32  1  6
  4 33  1  0
  4 34  1  0
  5 35  1  0
  5 36  1  0
  9 37  1  6
 10 38  1  0
 14 39  1  0
 15 40  1  0
 18 41  1  0
 23 42  1  0
 23 43  1  0
 24 44  1  0
 24 45  1  0
 25 46  1  0
 25 47  1  0
 26 48  1  0
 27 49  1  0
 27 50  1  0
 28 51  1  0
 29 52  1  0
 29 53  1  0
 30 54  1  0
 30 55  1  0
 31 56  1  0
 31 57  1  0
M  END
>  <candidate_id>  (13) 
CAND_44327fe5a9

>  <source_generator>  (13) 
v5_3_model_guided_macrocycle

>  <parent_mol_id>  (13) 
JAK2_9dcdbe0544

>  <canonical_smiles>  (13) 
N#C[C@H]1CCN(C(=O)[C@@H]2NC(=O)c3c[nH]c4ncc(nc34)C3(CCCC4CC42)CC3)C1

>  <inchikey>  (13) 
XBZKYLTXKLNUSQ-BEFRKJEDSA-N

>  <valid_rdkit>  (13) 
True

>  <unique_flag>  (13) 
True

>  <novel_flag>  (13) 
True

>  <mw>  (13) 
418.501

>  <logp>  (13) 
2.28

>  <tpsa>  (13) 
114.77

>  <hbd>  (13) 
2

>  <hba>  (13) 
5

>  <rotatable_bonds>  (13) 
1

>  <qed>  (13) 
0.7373

>  <sa_score>  (13) 
4.906

>  <murcko_scaffold>  (13) 
O=C1N[C@@H](C(=O)N2CCCC2)C2CC2CCCC2(CC2)c2cnc3[nH]cc1c3n2

>  <max_ring_size>  (13) 
13

>  <has_macrocycle_12_20>  (13) 
True

>  <has_constrained_ring_8_11>  (13) 
False

>  <passes_basic_filters>  (13) 
True

>  <generation_notes>  (13) 
v5_3_model_guided_anchor_pair=19-25;anchor_scores=0.691,0.079;linker_length=3;target_ring=12;linker_prob=0.278;chemotype=oxa_aza

$$$$
CAND_6d30b04ba5
     RDKit          3D

 55 60  0  0  0  0  0  0  0  0999 V2000
    7.8135    0.0235    2.2130 N   0  0  0  0  0  0  0  0  0  0  0  0
    6.8771    0.2411    1.5635 C   0  0  0  0  0  0  0  0  0  0  0  0
    5.7012    0.5124    0.7385 C   0  0  1  0  0  0  0  0  0  0  0  0
    5.7510   -0.1963   -0.6158 C   0  0  0  0  0  0  0  0  0  0  0  0
    4.2881   -0.2326   -1.0359 C   0  0  0  0  0  0  0  0  0  0  0  0
    3.5519   -0.2985    0.2157 N   0  0  0  0  0  0  0  0  0  0  0  0
    2.1941   -0.4804    0.3843 C   0  0  0  0  0  0  0  0  0  0  0  0
    1.6960   -0.4895    1.5152 O   0  0  0  0  0  0  0  0  0  0  0  0
    1.3171   -0.6600   -0.8877 C   0  0  2  0  0  0  0  0  0  0  0  0
    0.2888    0.3543   -0.8859 N   0  0  0  0  0  0  0  0  0  0  0  0
    0.5298    1.6779   -1.1554 C   0  0  0  0  0  0  0  0  0  0  0  0
    1.6129    2.1005   -1.5470 O   0  0  0  0  0  0  0  0  0  0  0  0
   -0.6114    2.5417   -0.8802 C   0  0  0  0  0  0  0  0  0  0  0  0
   -0.6472    3.9273   -0.9644 C   0  0  0  0  0  0  0  0  0  0  0  0
   -1.8839    4.3592   -0.5383 N   0  0  0  0  0  0  0  0  0  0  0  0
   -2.6452    3.2834   -0.1745 C   0  0  0  0  0  0  0  0  0  0  0  0
   -3.8883    3.3103    0.3422 N   0  0  0  0  0  0  0  0  0  0  0  0
   -4.3233    2.0422    0.6056 C   0  0  0  0  0  0  0  0  0  0  0  0
   -3.6186    0.8532    0.3542 C   0  0  0  0  0  0  0  0  0  0  0  0
   -2.3750    0.9007   -0.1777 N   0  0  0  0  0  0  0  0  0  0  0  0
   -1.8941    2.1463   -0.4180 C   0  0  0  0  0  0  0  0  0  0  0  0
   -4.1741   -0.5358    0.6669 C   0  0  0  0  0  0  0  0  0  0  0  0
   -5.6771   -0.7982    0.6588 C   0  0  0  0  0  0  0  0  0  0  0  0
   -4.8469   -1.2758   -0.4879 C   0  0  0  0  0  0  0  0  0  0  0  0
   -3.3038   -1.3672    1.6080 C   0  0  0  0  0  0  0  0  0  0  0  0
   -2.4594   -2.2365    0.8464 O   0  0  0  0  0  0  0  0  0  0  0  0
   -1.0667   -1.9907    1.0391 C   0  0  0  0  0  0  0  0  0  0  0  0
   -0.3190   -2.6871   -0.0593 C   0  0  0  0  0  0  0  0  0  0  0  0
   -0.6085   -2.3829   -1.5144 C   0  0  0  0  0  0  0  0  0  0  0  0
    0.7606   -2.0680   -0.9524 C   0  0  0  0  0  0  0  0  0  0  0  0
    4.4234   -0.0466    1.3533 C   0  0  0  0  0  0  0  0  0  0  0  0
    5.5893    1.5920    0.5758 H   0  0  0  0  0  0  0  0  0  0  0  0
    6.1334   -1.2200   -0.5088 H   0  0  0  0  0  0  0  0  0  0  0  0
    6.3820    0.3197   -1.3460 H   0  0  0  0  0  0  0  0  0  0  0  0
    4.0585   -1.0940   -1.6693 H   0  0  0  0  0  0  0  0  0  0  0  0
    3.9997    0.6869   -1.5552 H   0  0  0  0  0  0  0  0  0  0  0  0
    1.9083   -0.4944   -1.7916 H   0  0  0  0  0  0  0  0  0  0  0  0
   -0.6472    0.1047   -0.5842 H   0  0  0  0  0  0  0  0  0  0  0  0
    0.1135    4.6362   -1.2661 H   0  0  0  0  0  0  0  0  0  0  0  0
   -2.1913    5.3187   -0.4658 H   0  0  0  0  0  0  0  0  0  0  0  0
   -5.3142    2.0062    1.0494 H   0  0  0  0  0  0  0  0  0  0  0  0
   -6.3767    0.0038    0.4551 H   0  0  0  0  0  0  0  0  0  0  0  0
   -6.0789   -1.5498    1.3308 H   0  0  0  0  0  0  0  0  0  0  0  0
   -4.6712   -2.3422   -0.5857 H   0  0  0  0  0  0  0  0  0  0  0  0
   -4.9401   -0.7672   -1.4413 H   0  0  0  0  0  0  0  0  0  0  0  0
   -3.9365   -2.0104    2.2298 H   0  0  0  0  0  0  0  0  0  0  0  0
   -2.7344   -0.7298    2.2964 H   0  0  0  0  0  0  0  0  0  0  0  0
   -0.8664   -0.9213    1.0762 H   0  0  0  0  0  0  0  0  0  0  0  0
   -0.7709   -2.4120    2.0065 H   0  0  0  0  0  0  0  0  0  0  0  0
   -0.2080   -3.7396    0.1890 H   0  0  0  0  0  0  0  0  0  0  0  0
   -0.6991   -3.2258   -2.1920 H   0  0  0  0  0  0  0  0  0  0  0  0
   -1.3129   -1.5900   -1.7373 H   0  0  0  0  0  0  0  0  0  0  0  0
    1.5645   -2.7481   -1.2295 H   0  0  0  0  0  0  0  0  0  0  0  0
    3.9560    0.6506    2.0569 H   0  0  0  0  0  0  0  0  0  0  0  0
    4.5796   -1.0024    1.8684 H   0  0  0  0  0  0  0  0  0  0  0  0
  1  2  3  0
  2  3  1  0
  3  4  1  0
  4  5  1  0
  5  6  1  0
  6  7  1  0
  7  8  2  0
  7  9  1  0
  9 10  1  0
 10 11  1  0
 11 12  2  0
 11 13  1  0
 13 14  2  0
 14 15  1  0
 15 16  1  0
 16 17  2  0
 17 18  1  0
 18 19  2  0
 19 20  1  0
 20 21  2  0
 19 22  1  0
 22 23  1  0
 23 24  1  0
 22 25  1  0
 25 26  1  0
 26 27  1  0
 27 28  1  0
 28 29  1  0
 29 30  1  0
  6 31  1  0
 31  3  1  0
 30  9  1  0
 21 13  1  0
 24 22  1  0
 30 28  1  0
 21 16  1  0
  3 32  1  6
  4 33  1  0
  4 34  1  0
  5 35  1  0
  5 36  1  0
  9 37  1  6
 10 38  1  0
 14 39  1  0
 15 40  1  0
 18 41  1  0
 23 42  1  0
 23 43  1  0
 24 44  1  0
 24 45  1  0
 25 46  1  0
 25 47  1  0
 27 48  1  0
 27 49  1  0
 28 50  1  0
 29 51  1  0
 29 52  1  0
 30 53  1  0
 31 54  1  0
 31 55  1  0
M  END
>  <candidate_id>  (14) 
CAND_6d30b04ba5

>  <source_generator>  (14) 
v5_3_model_guided_macrocycle

>  <parent_mol_id>  (14) 
JAK2_9dcdbe0544

>  <canonical_smiles>  (14) 
N#C[C@H]1CCN(C(=O)[C@@H]2NC(=O)c3c[nH]c4ncc(nc34)C3(CC3)COCC3CC32)C1

>  <inchikey>  (14) 
FYCAHTMFAMULSV-PNDQRGPWSA-N

>  <valid_rdkit>  (14) 
True

>  <unique_flag>  (14) 
True

>  <novel_flag>  (14) 
True

>  <mw>  (14) 
420.473

>  <logp>  (14) 
1.1263

>  <tpsa>  (14) 
124.0

>  <hbd>  (14) 
2

>  <hba>  (14) 
6

>  <rotatable_bonds>  (14) 
1

>  <qed>  (14) 
0.7126

>  <sa_score>  (14) 
4.917

>  <murcko_scaffold>  (14) 
O=C1N[C@@H](C(=O)N2CCCC2)C2CC2COCC2(CC2)c2cnc3[nH]cc1c3n2

>  <max_ring_size>  (14) 
13

>  <has_macrocycle_12_20>  (14) 
True

>  <has_constrained_ring_8_11>  (14) 
False

>  <passes_basic_filters>  (14) 
True

>  <generation_notes>  (14) 
v5_3_model_guided_anchor_pair=19-25;anchor_scores=0.691,0.079;linker_length=3;target_ring=12;linker_prob=0.278;chemotype=oxa

$$$$
CAND_fd6a72e89d
     RDKit          3D

 56 61  0  0  0  0  0  0  0  0999 V2000
    8.2679    0.2956    2.0866 N   0  0  0  0  0  0  0  0  0  0  0  0
    7.2515    0.4541    1.5499 C   0  0  0  0  0  0  0  0  0  0  0  0
    5.9755    0.6488    0.8637 C   0  0  1  0  0  0  0  0  0  0  0  0
    5.8074   -0.2731   -0.3452 C   0  0  0  0  0  0  0  0  0  0  0  0
    4.2985   -0.3015   -0.5455 C   0  0  0  0  0  0  0  0  0  0  0  0
    3.7517   -0.1216    0.7883 N   0  0  0  0  0  0  0  0  0  0  0  0
    2.4271   -0.1951    1.1710 C   0  0  0  0  0  0  0  0  0  0  0  0
    2.1010   -0.0020    2.3470 O   0  0  0  0  0  0  0  0  0  0  0  0
    1.3693   -0.5229    0.0799 C   0  0  2  0  0  0  0  0  0  0  0  0
    0.3837    0.5350    0.0416 N   0  0  0  0  0  0  0  0  0  0  0  0
    0.6372    1.7606   -0.5228 C   0  0  0  0  0  0  0  0  0  0  0  0
    1.7477    2.0972   -0.9243 O   0  0  0  0  0  0  0  0  0  0  0  0
   -0.5356    2.6128   -0.6532 C   0  0  0  0  0  0  0  0  0  0  0  0
   -0.5633    3.9225   -1.1161 C   0  0  0  0  0  0  0  0  0  0  0  0
   -1.8726    4.3471   -1.1488 N   0  0  0  0  0  0  0  0  0  0  0  0
   -2.6925    3.3323   -0.7413 C   0  0  0  0  0  0  0  0  0  0  0  0
   -4.0380    3.3475   -0.6982 N   0  0  0  0  0  0  0  0  0  0  0  0
   -4.5141    2.1385   -0.2714 C   0  0  0  0  0  0  0  0  0  0  0  0
   -3.7454    1.0242    0.1063 C   0  0  0  0  0  0  0  0  0  0  0  0
   -2.3963    1.0960    0.0569 N   0  0  0  0  0  0  0  0  0  0  0  0
   -1.8842    2.2634   -0.3956 C   0  0  0  0  0  0  0  0  0  0  0  0
   -4.3378   -0.3228    0.5537 C   0  0  0  0  0  0  0  0  0  0  0  0
   -4.8434   -0.4122    1.9935 C   0  0  0  0  0  0  0  0  0  0  0  0
   -5.8245   -0.4692    0.8675 C   0  0  0  0  0  0  0  0  0  0  0  0
   -3.6293   -1.5445   -0.0484 C   0  0  0  0  0  0  0  0  0  0  0  0
   -2.5071   -1.9630    0.7986 N   0  0  0  0  0  0  0  0  0  0  0  0
   -1.6756   -2.9818    0.1701 C   0  0  0  0  0  0  0  0  0  0  0  0
   -0.4923   -2.3199   -0.4725 C   0  0  0  0  0  0  0  0  0  0  0  0
    0.8399   -3.0271   -0.5164 C   0  0  0  0  0  0  0  0  0  0  0  0
    0.6650   -1.8272    0.3857 C   0  0  0  0  0  0  0  0  0  0  0  0
    4.7858    0.2649    1.7353 C   0  0  0  0  0  0  0  0  0  0  0  0
    5.8717    1.6917    0.5380 H   0  0  0  0  0  0  0  0  0  0  0  0
    6.1725   -1.2842   -0.1212 H   0  0  0  0  0  0  0  0  0  0  0  0
    6.3394    0.0834   -1.2327 H   0  0  0  0  0  0  0  0  0  0  0  0
    3.9549   -1.2427   -0.9838 H   0  0  0  0  0  0  0  0  0  0  0  0
    3.9642    0.5327   -1.1703 H   0  0  0  0  0  0  0  0  0  0  0  0
    1.8249   -0.5661   -0.9122 H   0  0  0  0  0  0  0  0  0  0  0  0
   -0.5604    0.3264    0.3677 H   0  0  0  0  0  0  0  0  0  0  0  0
    0.2397    4.5745   -1.4358 H   0  0  0  0  0  0  0  0  0  0  0  0
   -2.2023    5.2510   -1.4561 H   0  0  0  0  0  0  0  0  0  0  0  0
   -5.5979    2.0936   -0.2467 H   0  0  0  0  0  0  0  0  0  0  0  0
   -4.6765   -1.3200    2.5610 H   0  0  0  0  0  0  0  0  0  0  0  0
   -4.8102    0.4839    2.6048 H   0  0  0  0  0  0  0  0  0  0  0  0
   -6.5060    0.3659    0.7665 H   0  0  0  0  0  0  0  0  0  0  0  0
   -6.3071   -1.4219    0.6721 H   0  0  0  0  0  0  0  0  0  0  0  0
   -4.3357   -2.3780   -0.1473 H   0  0  0  0  0  0  0  0  0  0  0  0
   -3.2868   -1.2994   -1.0616 H   0  0  0  0  0  0  0  0  0  0  0  0
   -2.8758   -2.3263    1.6742 H   0  0  0  0  0  0  0  0  0  0  0  0
   -2.2279   -3.5861   -0.5590 H   0  0  0  0  0  0  0  0  0  0  0  0
   -1.3317   -3.6740    0.9485 H   0  0  0  0  0  0  0  0  0  0  0  0
   -0.7758   -1.7317   -1.3386 H   0  0  0  0  0  0  0  0  0  0  0  0
    1.4307   -2.9242   -1.4197 H   0  0  0  0  0  0  0  0  0  0  0  0
    0.9322   -3.9990   -0.0437 H   0  0  0  0  0  0  0  0  0  0  0  0
    0.5724   -1.9947    1.4554 H   0  0  0  0  0  0  0  0  0  0  0  0
    4.9880   -0.6017    2.3767 H   0  0  0  0  0  0  0  0  0  0  0  0
    4.4465    1.0906    2.3700 H   0  0  0  0  0  0  0  0  0  0  0  0
  1  2  3  0
  2  3  1  0
  3  4  1  0
  4  5  1  0
  5  6  1  0
  6  7  1  0
  7  8  2  0
  7  9  1  0
  9 10  1  0
 10 11  1  0
 11 12  2  0
 11 13  1  0
 13 14  2  0
 14 15  1  0
 15 16  1  0
 16 17  2  0
 17 18  1  0
 18 19  2  0
 19 20  1  0
 20 21  2  0
 19 22  1  0
 22 23  1  0
 23 24  1  0
 22 25  1  0
 25 26  1  0
 26 27  1  0
 27 28  1  0
 28 29  1  0
 29 30  1  0
  6 31  1  0
 31  3  1  0
 30  9  1  0
 21 13  1  0
 24 22  1  0
 30 28  1  0
 21 16  1  0
  3 32  1  6
  4 33  1  0
  4 34  1  0
  5 35  1  0
  5 36  1  0
  9 37  1  6
 10 38  1  0
 14 39  1  0
 15 40  1  0
 18 41  1  0
 23 42  1  0
 23 43  1  0
 24 44  1  0
 24 45  1  0
 25 46  1  0
 25 47  1  0
 26 48  1  0
 27 49  1  0
 27 50  1  0
 28 51  1  0
 29 52  1  0
 29 53  1  0
 30 54  1  0
 31 55  1  0
 31 56  1  0
M  END
>  <candidate_id>  (15) 
CAND_fd6a72e89d

>  <source_generator>  (15) 
v5_3_model_guided_macrocycle

>  <parent_mol_id>  (15) 
JAK2_9dcdbe0544

>  <canonical_smiles>  (15) 
N#C[C@H]1CCN(C(=O)[C@@H]2NC(=O)c3c[nH]c4ncc(nc34)C3(CC3)CNCC3CC32)C1

>  <inchikey>  (15) 
OCXBEBDLAHWVLE-PNDQRGPWSA-N

>  <valid_rdkit>  (15) 
True

>  <unique_flag>  (15) 
True

>  <novel_flag>  (15) 
True

>  <mw>  (15) 
419.489

>  <logp>  (15) 
0.6993

>  <tpsa>  (15) 
126.8

>  <hbd>  (15) 
3

>  <hba>  (15) 
6

>  <rotatable_bonds>  (15) 
1

>  <qed>  (15) 
0.6245

>  <sa_score>  (15) 
4.911

>  <murcko_scaffold>  (15) 
O=C1N[C@@H](C(=O)N2CCCC2)C2CC2CNCC2(CC2)c2cnc3[nH]cc1c3n2

>  <max_ring_size>  (15) 
13

>  <has_macrocycle_12_20>  (15) 
True

>  <has_constrained_ring_8_11>  (15) 
False

>  <passes_basic_filters>  (15) 
True

>  <generation_notes>  (15) 
v5_3_model_guided_anchor_pair=19-25;anchor_scores=0.691,0.079;linker_length=3;target_ring=12;linker_prob=0.278;chemotype=aza

$$$$
CAND_956024a173
     RDKit          3D

 55 60  0  0  0  0  0  0  0  0999 V2000
    5.9549   -3.2922   -1.9218 N   0  0  0  0  0  0  0  0  0  0  0  0
    5.9291   -2.1893   -1.5621 C   0  0  0  0  0  0  0  0  0  0  0  0
    5.8976   -0.7829   -1.1303 C   0  0  1  0  0  0  0  0  0  0  0  0
    5.3840    0.1282   -2.2480 C   0  0  0  0  0  0  0  0  0  0  0  0
    3.8655    0.0341   -2.1314 C   0  0  0  0  0  0  0  0  0  0  0  0
    3.6251   -0.2649   -0.7302 N   0  0  0  0  0  0  0  0  0  0  0  0
    2.4167   -0.2433   -0.0599 C   0  0  0  0  0  0  0  0  0  0  0  0
    2.3767   -0.4301    1.1605 O   0  0  0  0  0  0  0  0  0  0  0  0
    1.1291   -0.0310   -0.9014 C   0  0  2  0  0  0  0  0  0  0  0  0
    0.2519    0.8736   -0.1931 N   0  0  0  0  0  0  0  0  0  0  0  0
    0.4484    2.2299   -0.1524 C   0  0  0  0  0  0  0  0  0  0  0  0
    1.3964    2.7886   -0.6955 O   0  0  0  0  0  0  0  0  0  0  0  0
   -0.5741    2.9448    0.5965 C   0  0  0  0  0  0  0  0  0  0  0  0
   -0.5128    4.2601    1.0375 C   0  0  0  0  0  0  0  0  0  0  0  0
   -1.6680    4.5412    1.7314 N   0  0  0  0  0  0  0  0  0  0  0  0
   -2.4829    3.4438    1.7285 C   0  0  0  0  0  0  0  0  0  0  0  0
   -3.6937    3.3382    2.3059 N   0  0  0  0  0  0  0  0  0  0  0  0
   -4.2148    2.0927    2.0921 C   0  0  0  0  0  0  0  0  0  0  0  0
   -3.6190    1.0453    1.3640 C   0  0  0  0  0  0  0  0  0  0  0  0
   -2.3978    1.2326    0.8095 N   0  0  0  0  0  0  0  0  0  0  0  0
   -1.8358    2.4488    1.0163 C   0  0  0  0  0  0  0  0  0  0  0  0
   -4.2945   -0.3260    1.1249 C   0  0  0  0  0  0  0  0  0  0  0  0
   -5.8021   -0.3471    0.8808 C   0  0  0  0  0  0  0  0  0  0  0  0
   -5.2535   -0.8968    2.1630 C   0  0  0  0  0  0  0  0  0  0  0  0
   -3.4701   -1.3223    0.3061 C   0  0  0  0  0  0  0  0  0  0  0  0
   -2.1991   -2.1147    1.3384 S   0  0  0  0  0  0  0  0  0  0  0  0
   -1.2594   -2.9851    0.0488 C   0  0  0  0  0  0  0  0  0  0  0  0
    0.0780   -2.3309   -0.1091 C   0  0  0  0  0  0  0  0  0  0  0  0
    0.9460   -2.6595   -1.3044 C   0  0  0  0  0  0  0  0  0  0  0  0
    0.3298   -1.2864   -1.1832 C   0  0  0  0  0  0  0  0  0  0  0  0
    4.8634   -0.5696   -0.0298 C   0  0  0  0  0  0  0  0  0  0  0  0
    6.8983   -0.4873   -0.7981 H   0  0  0  0  0  0  0  0  0  0  0  0
    5.6972    1.1602   -2.0445 H   0  0  0  0  0  0  0  0  0  0  0  0
    5.7392   -0.1405   -3.2479 H   0  0  0  0  0  0  0  0  0  0  0  0
    3.4591   -0.7877   -2.7303 H   0  0  0  0  0  0  0  0  0  0  0  0
    3.3786    0.9687   -2.4230 H   0  0  0  0  0  0  0  0  0  0  0  0
    1.3711    0.4390   -1.8572 H   0  0  0  0  0  0  0  0  0  0  0  0
   -0.5126    0.4772    0.3491 H   0  0  0  0  0  0  0  0  0  0  0  0
    0.2644    5.0057    0.9276 H   0  0  0  0  0  0  0  0  0  0  0  0
   -1.8992    5.4149    2.1824 H   0  0  0  0  0  0  0  0  0  0  0  0
   -5.1931    1.9566    2.5443 H   0  0  0  0  0  0  0  0  0  0  0  0
   -6.2065   -1.0533    0.1625 H   0  0  0  0  0  0  0  0  0  0  0  0
   -6.3664    0.5777    0.9180 H   0  0  0  0  0  0  0  0  0  0  0  0
   -5.4277   -0.3523    3.0835 H   0  0  0  0  0  0  0  0  0  0  0  0
   -5.2785   -1.9731    2.3055 H   0  0  0  0  0  0  0  0  0  0  0  0
   -3.0093   -0.8264   -0.5550 H   0  0  0  0  0  0  0  0  0  0  0  0
   -4.1133   -2.1177   -0.0872 H   0  0  0  0  0  0  0  0  0  0  0  0
   -1.1141   -4.0178    0.3817 H   0  0  0  0  0  0  0  0  0  0  0  0
   -1.8181   -3.0176   -0.8921 H   0  0  0  0  0  0  0  0  0  0  0  0
    0.5991   -2.2560    0.8417 H   0  0  0  0  0  0  0  0  0  0  0  0
    2.0079   -2.7922   -1.1273 H   0  0  0  0  0  0  0  0  0  0  0  0
    0.5516   -3.3266   -2.0637 H   0  0  0  0  0  0  0  0  0  0  0  0
   -0.4863   -1.0640   -1.8660 H   0  0  0  0  0  0  0  0  0  0  0  0
    5.1131    0.3092    0.5766 H   0  0  0  0  0  0  0  0  0  0  0  0
    4.7306   -1.4267    0.6392 H   0  0  0  0  0  0  0  0  0  0  0  0
  1  2  3  0
  2  3  1  0
  3  4  1  0
  4  5  1  0
  5  6  1  0
  6  7  1  0
  7  8  2  0
  7  9  1  0
  9 10  1  0
 10 11  1  0
 11 12  2  0
 11 13  1  0
 13 14  2  0
 14 15  1  0
 15 16  1  0
 16 17  2  0
 17 18  1  0
 18 19  2  0
 19 20  1  0
 20 21  2  0
 19 22  1  0
 22 23  1  0
 23 24  1  0
 22 25  1  0
 25 26  1  0
 26 27  1  0
 27 28  1  0
 28 29  1  0
 29 30  1  0
  6 31  1  0
 31  3  1  0
 30  9  1  0
 21 13  1  0
 24 22  1  0
 30 28  1  0
 21 16  1  0
  3 32  1  1
  4 33  1  0
  4 34  1  0
  5 35  1  0
  5 36  1  0
  9 37  1  6
 10 38  1  0
 14 39  1  0
 15 40  1  0
 18 41  1  0
 23 42  1  0
 23 43  1  0
 24 44  1  0
 24 45  1  0
 25 46  1  0
 25 47  1  0
 27 48  1  0
 27 49  1  0
 28 50  1  0
 29 51  1  0
 29 52  1  0
 30 53  1  0
 31 54  1  0
 31 55  1  0
M  END
>  <candidate_id>  (16) 
CAND_956024a173

>  <source_generator>  (16) 
v5_3_model_guided_macrocycle

>  <parent_mol_id>  (16) 
JAK2_9dcdbe0544

>  <canonical_smiles>  (16) 
N#C[C@H]1CCN(C(=O)[C@@H]2NC(=O)c3c[nH]c4ncc(nc34)C3(CC3)CSCC3CC32)C1

>  <inchikey>  (16) 
SPVWFDQKMXQKBE-PNDQRGPWSA-N

>  <valid_rdkit>  (16) 
True

>  <unique_flag>  (16) 
True

>  <novel_flag>  (16) 
True

>  <mw>  (16) 
436.541

>  <logp>  (16) 
1.8429

>  <tpsa>  (16) 
114.77

>  <hbd>  (16) 
2

>  <hba>  (16) 
6

>  <rotatable_bonds>  (16) 
1

>  <qed>  (16) 
0.705

>  <sa_score>  (16) 
5.006

>  <murcko_scaffold>  (16) 
O=C1N[C@@H](C(=O)N2CCCC2)C2CC2CSCC2(CC2)c2cnc3[nH]cc1c3n2

>  <max_ring_size>  (16) 
13

>  <has_macrocycle_12_20>  (16) 
True

>  <has_constrained_ring_8_11>  (16) 
False

>  <passes_basic_filters>  (16) 
True

>  <generation_notes>  (16) 
v5_3_model_guided_anchor_pair=19-25;anchor_scores=0.691,0.079;linker_length=3;target_ring=12;linker_prob=0.278;chemotype=thioether

$$$$
CAND_d93664c4b9
     RDKit          3D

 57 62  0  0  0  0  0  0  0  0999 V2000
    7.8949   -0.8117   -0.0944 N   0  0  0  0  0  0  0  0  0  0  0  0
    6.8211   -0.7045    0.3317 C   0  0  0  0  0  0  0  0  0  0  0  0
    5.4711   -0.5619    0.8741 C   0  0  1  0  0  0  0  0  0  0  0  0
    5.2301    0.8075    1.5102 C   0  0  0  0  0  0  0  0  0  0  0  0
    3.7126    0.9287    1.4942 C   0  0  0  0  0  0  0  0  0  0  0  0
    3.2993    0.1700    0.3251 N   0  0  0  0  0  0  0  0  0  0  0  0
    2.0293    0.0672   -0.2098 C   0  0  0  0  0  0  0  0  0  0  0  0
    1.8217   -0.6648   -1.1829 O   0  0  0  0  0  0  0  0  0  0  0  0
    0.8823    0.8686    0.4717 C   0  0  2  0  0  0  0  0  0  0  0  0
   -0.1489   -0.0514    0.9013 N   0  0  0  0  0  0  0  0  0  0  0  0
   -0.0553   -0.8471    2.0171 C   0  0  0  0  0  0  0  0  0  0  0  0
    0.8880   -0.8042    2.8002 O   0  0  0  0  0  0  0  0  0  0  0  0
   -1.1797   -1.7637    2.1728 C   0  0  0  0  0  0  0  0  0  0  0  0
   -1.3550   -2.7341    3.1502 C   0  0  0  0  0  0  0  0  0  0  0  0
   -2.5419   -3.3942    2.9057 N   0  0  0  0  0  0  0  0  0  0  0  0
   -3.1399   -2.8700    1.7925 C   0  0  0  0  0  0  0  0  0  0  0  0
   -4.3037   -3.2556    1.2293 N   0  0  0  0  0  0  0  0  0  0  0  0
   -4.5742   -2.5022    0.1201 C   0  0  0  0  0  0  0  0  0  0  0  0
   -3.7764   -1.4647   -0.3776 C   0  0  0  0  0  0  0  0  0  0  0  0
   -2.6268   -1.1187    0.2432 N   0  0  0  0  0  0  0  0  0  0  0  0
   -2.3190   -1.8542    1.3356 C   0  0  0  0  0  0  0  0  0  0  0  0
   -4.1296   -0.6363   -1.5863 C   0  0  0  0  0  0  0  0  0  0  0  0
   -4.1903   -1.1501   -3.0010 C   0  0  0  0  0  0  0  0  0  0  0  0
   -2.9761   -0.3828   -2.5549 C   0  0  0  0  0  0  0  0  0  0  0  0
   -2.6722    1.0276   -2.9646 C   0  0  0  0  0  0  0  0  0  0  0  0
   -1.9134    1.7966   -1.8673 C   0  0  0  0  0  0  0  0  0  0  0  0
   -0.4347    1.3951   -1.7360 C   0  0  0  0  0  0  0  0  0  0  0  0
    0.2625    1.9266   -0.4686 C   0  0  0  0  0  0  0  0  0  0  0  0
   -0.2230    3.2192    0.1828 C   0  0  0  0  0  0  0  0  0  0  0  0
    1.0301    3.2320   -0.6310 C   0  0  0  0  0  0  0  0  0  0  0  0
    4.4038   -0.6099   -0.2129 C   0  0  0  0  0  0  0  0  0  0  0  0
    5.2736   -1.3441    1.6181 H   0  0  0  0  0  0  0  0  0  0  0  0
    5.6445    0.8895    2.5199 H   0  0  0  0  0  0  0  0  0  0  0  0
    5.6740    1.6064    0.9015 H   0  0  0  0  0  0  0  0  0  0  0  0
    3.2671    0.4643    2.3795 H   0  0  0  0  0  0  0  0  0  0  0  0
    3.3815    1.9681    1.4253 H   0  0  0  0  0  0  0  0  0  0  0  0
    1.2521    1.3605    1.3749 H   0  0  0  0  0  0  0  0  0  0  0  0
   -0.9543   -0.1859    0.2949 H   0  0  0  0  0  0  0  0  0  0  0  0
   -0.7293   -3.0138    3.9883 H   0  0  0  0  0  0  0  0  0  0  0  0
   -2.9252   -4.1564    3.4466 H   0  0  0  0  0  0  0  0  0  0  0  0
   -5.5003   -2.7631   -0.3848 H   0  0  0  0  0  0  0  0  0  0  0  0
   -4.7817    0.2078   -1.3710 H   0  0  0  0  0  0  0  0  0  0  0  0
   -4.0772   -2.2152   -3.1718 H   0  0  0  0  0  0  0  0  0  0  0  0
   -4.8757   -0.6681   -3.6892 H   0  0  0  0  0  0  0  0  0  0  0  0
   -2.0680   -0.9718   -2.4587 H   0  0  0  0  0  0  0  0  0  0  0  0
   -2.0894    1.0222   -3.8926 H   0  0  0  0  0  0  0  0  0  0  0  0
   -3.6074    1.5592   -3.1795 H   0  0  0  0  0  0  0  0  0  0  0  0
   -2.4235    1.6657   -0.9056 H   0  0  0  0  0  0  0  0  0  0  0  0
   -1.9628    2.8645   -2.1122 H   0  0  0  0  0  0  0  0  0  0  0  0
   -0.3637    0.3052   -1.7638 H   0  0  0  0  0  0  0  0  0  0  0  0
    0.1115    1.7443   -2.6214 H   0  0  0  0  0  0  0  0  0  0  0  0
   -1.0808    3.7484   -0.2140 H   0  0  0  0  0  0  0  0  0  0  0  0
   -0.1347    3.3204    1.2602 H   0  0  0  0  0  0  0  0  0  0  0  0
    1.9723    3.3590   -0.1101 H   0  0  0  0  0  0  0  0  0  0  0  0
    1.0019    3.7390   -1.5903 H   0  0  0  0  0  0  0  0  0  0  0  0
    4.7229   -0.1306   -1.1466 H   0  0  0  0  0  0  0  0  0  0  0  0
    4.0860   -1.6326   -0.4428 H   0  0  0  0  0  0  0  0  0  0  0  0
  1  2  3  0
  2  3  1  0
  3  4  1  0
  4  5  1  0
  5  6  1  0
  6  7  1  0
  7  8  2  0
  7  9  1  0
  9 10  1  0
 10 11  1  0
 11 12  2  0
 11 13  1  0
 13 14  2  0
 14 15  1  0
 15 16  1  0
 16 17  2  0
 17 18  1  0
 18 19  2  0
 19 20  1  0
 20 21  2  0
 19 22  1  0
 22 23  1  0
 23 24  1  0
 24 25  1  0
 25 26  1  0
 26 27  1  0
 27 28  1  0
 28 29  1  0
 29 30  1  0
  6 31  1  0
 31  3  1  0
 28  9  1  0
 21 13  1  0
 24 22  1  0
 30 28  1  0
 21 16  1  0
  3 32  1  1
  4 33  1  0
  4 34  1  0
  5 35  1  0
  5 36  1  0
  9 37  1  1
 10 38  1  0
 14 39  1  0
 15 40  1  0
 18 41  1  0
 22 42  1  0
 23 43  1  0
 23 44  1  0
 24 45  1  0
 25 46  1  0
 25 47  1  0
 26 48  1  0
 26 49  1  0
 27 50  1  0
 27 51  1  0
 29 52  1  0
 29 53  1  0
 30 54  1  0
 30 55  1  0
 31 56  1  0
 31 57  1  0
M  END
>  <candidate_id>  (17) 
CAND_d93664c4b9

>  <source_generator>  (17) 
v5_3_model_guided_macrocycle

>  <parent_mol_id>  (17) 
JAK2_9dcdbe0544

>  <canonical_smiles>  (17) 
N#C[C@H]1CCN(C(=O)[C@@H]2NC(=O)c3c[nH]c4ncc(nc34)C3CC3CCCC23CC3)C1

>  <inchikey>  (17) 
HOMDVHDDTYNNLA-JXGBTDEFSA-N

>  <valid_rdkit>  (17) 
True

>  <unique_flag>  (17) 
True

>  <novel_flag>  (17) 
True

>  <mw>  (17) 
418.501

>  <logp>  (17) 
2.496

>  <tpsa>  (17) 
114.77

>  <hbd>  (17) 
2

>  <hba>  (17) 
5

>  <rotatable_bonds>  (17) 
1

>  <qed>  (17) 
0.7384

>  <sa_score>  (17) 
4.906

>  <murcko_scaffold>  (17) 
O=C1N[C@@H](C(=O)N2CCCC2)C2(CCCC3CC3c3cnc4[nH]cc1c4n3)CC2

>  <max_ring_size>  (17) 
13

>  <has_macrocycle_12_20>  (17) 
True

>  <has_constrained_ring_8_11>  (17) 
False

>  <passes_basic_filters>  (17) 
True

>  <generation_notes>  (17) 
v5_3_model_guided_anchor_pair=24-20;anchor_scores=0.691,0.079;linker_length=3;target_ring=12;linker_prob=0.278;chemotype=oxa_aza

$$$$
CAND_9d4c5cab6d
     RDKit          3D

 56 61  0  0  0  0  0  0  0  0999 V2000
    5.6459    2.2907    1.3624 N   0  0  0  0  0  0  0  0  0  0  0  0
    5.4636    1.2507    0.8817 C   0  0  0  0  0  0  0  0  0  0  0  0
    5.2684   -0.0814    0.2874 C   0  0  1  0  0  0  0  0  0  0  0  0
    5.1544   -1.1606    1.3667 C   0  0  0  0  0  0  0  0  0  0  0  0
    3.6833   -1.1219    1.7572 C   0  0  0  0  0  0  0  0  0  0  0  0
    2.9983   -0.7463    0.5345 N   0  0  0  0  0  0  0  0  0  0  0  0
    1.6295   -0.8832    0.4174 C   0  0  0  0  0  0  0  0  0  0  0  0
    0.9561   -1.2840    1.3732 O   0  0  0  0  0  0  0  0  0  0  0  0
    0.9621   -0.5015   -0.9316 C   0  0  2  0  0  0  0  0  0  0  0  0
    0.1350    0.6588   -0.6978 N   0  0  0  0  0  0  0  0  0  0  0  0
    0.5013    1.9685   -0.8603 C   0  0  0  0  0  0  0  0  0  0  0  0
    1.6014    2.3233   -1.2659 O   0  0  0  0  0  0  0  0  0  0  0  0
   -0.5598    2.8999   -0.4887 C   0  0  0  0  0  0  0  0  0  0  0  0
   -0.4843    4.2811   -0.3783 C   0  0  0  0  0  0  0  0  0  0  0  0
   -1.7135    4.7554    0.0341 N   0  0  0  0  0  0  0  0  0  0  0  0
   -2.5845    3.7106    0.1849 C   0  0  0  0  0  0  0  0  0  0  0  0
   -3.8696    3.7644    0.5892 N   0  0  0  0  0  0  0  0  0  0  0  0
   -4.4133    2.5085    0.6239 C   0  0  0  0  0  0  0  0  0  0  0  0
   -3.7601    1.3125    0.2853 C   0  0  0  0  0  0  0  0  0  0  0  0
   -2.4779    1.3379   -0.1241 N   0  0  0  0  0  0  0  0  0  0  0  0
   -1.8963    2.5605   -0.1546 C   0  0  0  0  0  0  0  0  0  0  0  0
   -4.4586   -0.0304    0.3143 C   0  0  0  0  0  0  0  0  0  0  0  0
   -4.7575   -0.6945    1.6331 C   0  0  0  0  0  0  0  0  0  0  0  0
   -3.7596   -1.3389    0.7002 C   0  0  0  0  0  0  0  0  0  0  0  0
   -2.3391   -1.4693    1.1696 C   0  0  0  0  0  0  0  0  0  0  0  0
   -1.4941   -2.2912    0.2981 N   0  0  0  0  0  0  0  0  0  0  0  0
   -1.3445   -1.7960   -1.0652 C   0  0  0  0  0  0  0  0  0  0  0  0
    0.1188   -1.6664   -1.5053 C   0  0  0  0  0  0  0  0  0  0  0  0
    0.4064   -2.0481   -2.9534 C   0  0  0  0  0  0  0  0  0  0  0  0
    0.8552   -2.9544   -1.8494 C   0  0  0  0  0  0  0  0  0  0  0  0
    3.9265   -0.1806   -0.4391 C   0  0  0  0  0  0  0  0  0  0  0  0
    6.1000   -0.2879   -0.3952 H   0  0  0  0  0  0  0  0  0  0  0  0
    5.3861   -2.1386    0.9259 H   0  0  0  0  0  0  0  0  0  0  0  0
    5.8157   -1.0103    2.2258 H   0  0  0  0  0  0  0  0  0  0  0  0
    3.3196   -2.0824    2.1346 H   0  0  0  0  0  0  0  0  0  0  0  0
    3.4833   -0.3492    2.5080 H   0  0  0  0  0  0  0  0  0  0  0  0
    1.7257   -0.2240   -1.6620 H   0  0  0  0  0  0  0  0  0  0  0  0
   -0.7626    0.4946   -0.2525 H   0  0  0  0  0  0  0  0  0  0  0  0
    0.3433    4.9596   -0.5431 H   0  0  0  0  0  0  0  0  0  0  0  0
   -1.9518    5.7206    0.2132 H   0  0  0  0  0  0  0  0  0  0  0  0
   -5.4520    2.4830    0.9437 H   0  0  0  0  0  0  0  0  0  0  0  0
   -5.2150   -0.1435   -0.4611 H   0  0  0  0  0  0  0  0  0  0  0  0
   -5.7195   -1.1810    1.7524 H   0  0  0  0  0  0  0  0  0  0  0  0
   -4.3854   -0.2383    2.5448 H   0  0  0  0  0  0  0  0  0  0  0  0
   -4.0940   -2.2489    0.2100 H   0  0  0  0  0  0  0  0  0  0  0  0
   -1.8655   -0.5068    1.3757 H   0  0  0  0  0  0  0  0  0  0  0  0
   -2.3684   -1.9844    2.1382 H   0  0  0  0  0  0  0  0  0  0  0  0
   -0.5724   -2.3236    0.7502 H   0  0  0  0  0  0  0  0  0  0  0  0
   -1.8429   -2.5325   -1.7092 H   0  0  0  0  0  0  0  0  0  0  0  0
   -1.8806   -0.8656   -1.2639 H   0  0  0  0  0  0  0  0  0  0  0  0
   -0.4142   -2.3816   -3.5805 H   0  0  0  0  0  0  0  0  0  0  0  0
    1.1635   -1.5009   -3.5045 H   0  0  0  0  0  0  0  0  0  0  0  0
    1.9182   -3.0240   -1.6487 H   0  0  0  0  0  0  0  0  0  0  0  0
    0.3298   -3.8947   -1.7127 H   0  0  0  0  0  0  0  0  0  0  0  0
    3.9860   -0.8900   -1.2725 H   0  0  0  0  0  0  0  0  0  0  0  0
    3.5599    0.7766   -0.8159 H   0  0  0  0  0  0  0  0  0  0  0  0
  1  2  3  0
  2  3  1  0
  3  4  1  0
  4  5  1  0
  5  6  1  0
  6  7  1  0
  7  8  2  0
  7  9  1  0
  9 10  1  0
 10 11  1  0
 11 12  2  0
 11 13  1  0
 13 14  2  0
 14 15  1  0
 15 16  1  0
 16 17  2  0
 17 18  1  0
 18 19  2  0
 19 20  1  0
 20 21  2  0
 19 22  1  0
 22 23  1  0
 23 24  1  0
 24 25  1  0
 25 26  1  0
 26 27  1  0
 27 28  1  0
 28 29  1  0
 29 30  1  0
  6 31  1  0
 31  3  1  0
 28  9  1  0
 21 13  1  0
 24 22  1  0
 30 28  1  0
 21 16  1  0
  3 32  1  6
  4 33  1  0
  4 34  1  0
  5 35  1  0
  5 36  1  0
  9 37  1  6
 10 38  1  0
 14 39  1  0
 15 40  1  0
 18 41  1  0
 22 42  1  0
 23 43  1  0
 23 44  1  0
 24 45  1  0
 25 46  1  0
 25 47  1  0
 26 48  1  0
 27 49  1  0
 27 50  1  0
 29 51  1  0
 29 52  1  0
 30 53  1  0
 30 54  1  0
 31 55  1  0
 31 56  1  0
M  END
>  <candidate_id>  (18) 
CAND_9d4c5cab6d

>  <source_generator>  (18) 
v5_3_model_guided_macrocycle

>  <parent_mol_id>  (18) 
JAK2_9dcdbe0544

>  <canonical_smiles>  (18) 
N#C[C@H]1CCN(C(=O)[C@@H]2NC(=O)c3c[nH]c4ncc(nc34)C3CC3CNCC23CC3)C1

>  <inchikey>  (18) 
IPHWYJUXNGKNHB-XILSRCRHSA-N

>  <valid_rdkit>  (18) 
True

>  <unique_flag>  (18) 
True

>  <novel_flag>  (18) 
True

>  <mw>  (18) 
419.489

>  <logp>  (18) 
0.9153

>  <tpsa>  (18) 
126.8

>  <hbd>  (18) 
3

>  <hba>  (18) 
6

>  <rotatable_bonds>  (18) 
1

>  <qed>  (18) 
0.6308

>  <sa_score>  (18) 
4.911

>  <murcko_scaffold>  (18) 
O=C1N[C@@H](C(=O)N2CCCC2)C2(CC2)CNCC2CC2c2cnc3[nH]cc1c3n2

>  <max_ring_size>  (18) 
13

>  <has_macrocycle_12_20>  (18) 
True

>  <has_constrained_ring_8_11>  (18) 
False

>  <passes_basic_filters>  (18) 
True

>  <generation_notes>  (18) 
v5_3_model_guided_anchor_pair=24-20;anchor_scores=0.691,0.079;linker_length=3;target_ring=12;linker_prob=0.278;chemotype=aza

$$$$
CAND_6c9b69bfe2
     RDKit          3D

 55 60  0  0  0  0  0  0  0  0999 V2000
    5.9547   -2.1271    1.8147 N   0  0  0  0  0  0  0  0  0  0  0  0
    5.4620   -1.0839    1.9391 C   0  0  0  0  0  0  0  0  0  0  0  0
    4.8610    0.2511    2.0840 C   0  0  1  0  0  0  0  0  0  0  0  0
    5.0283    1.0772    0.8063 C   0  0  0  0  0  0  0  0  0  0  0  0
    3.8653    0.6310   -0.0749 C   0  0  0  0  0  0  0  0  0  0  0  0
    2.8331    0.2239    0.8640 N   0  0  0  0  0  0  0  0  0  0  0  0
    1.4949   -0.0073    0.6025 C   0  0  0  0  0  0  0  0  0  0  0  0
    0.6974   -0.1479    1.5351 O   0  0  0  0  0  0  0  0  0  0  0  0
    1.0422   -0.0505   -0.8821 C   0  0  2  0  0  0  0  0  0  0  0  0
   -0.1091    0.8173   -0.9818 N   0  0  0  0  0  0  0  0  0  0  0  0
   -0.1019    2.1572   -1.2858 C   0  0  0  0  0  0  0  0  0  0  0  0
    0.8937    2.7691   -1.6556 O   0  0  0  0  0  0  0  0  0  0  0  0
   -1.4098    2.7849   -1.0927 C   0  0  0  0  0  0  0  0  0  0  0  0
   -1.7773    4.1156   -1.2322 C   0  0  0  0  0  0  0  0  0  0  0  0
   -3.1134    4.2411   -0.8900 N   0  0  0  0  0  0  0  0  0  0  0  0
   -3.6157    3.0198   -0.5259 C   0  0  0  0  0  0  0  0  0  0  0  0
   -4.8583    2.7190   -0.0891 N   0  0  0  0  0  0  0  0  0  0  0  0
   -4.9546    1.3825    0.2146 C   0  0  0  0  0  0  0  0  0  0  0  0
   -3.9328    0.4368    0.0749 C   0  0  0  0  0  0  0  0  0  0  0  0
   -2.7351    0.8046   -0.4084 N   0  0  0  0  0  0  0  0  0  0  0  0
   -2.5842    2.1161   -0.6768 C   0  0  0  0  0  0  0  0  0  0  0  0
   -4.0273   -1.0287    0.4146 C   0  0  0  0  0  0  0  0  0  0  0  0
   -4.2129   -1.5941    1.7955 C   0  0  0  0  0  0  0  0  0  0  0  0
   -2.8252   -1.5589    1.2103 C   0  0  0  0  0  0  0  0  0  0  0  0
   -2.0786   -2.7673    0.7437 C   0  0  0  0  0  0  0  0  0  0  0  0
   -0.7576   -2.3967    0.3257 O   0  0  0  0  0  0  0  0  0  0  0  0
   -0.6729   -2.0518   -1.0520 C   0  0  0  0  0  0  0  0  0  0  0  0
    0.7055   -1.4744   -1.3766 C   0  0  0  0  0  0  0  0  0  0  0  0
    1.2867   -1.8678   -2.7303 C   0  0  0  0  0  0  0  0  0  0  0  0
    1.8493   -2.4729   -1.4809 C   0  0  0  0  0  0  0  0  0  0  0  0
    3.3451    0.1632    2.2245 C   0  0  0  0  0  0  0  0  0  0  0  0
    5.3105    0.7528    2.9475 H   0  0  0  0  0  0  0  0  0  0  0  0
    5.9956    0.9496    0.3103 H   0  0  0  0  0  0  0  0  0  0  0  0
    4.9098    2.1415    1.0468 H   0  0  0  0  0  0  0  0  0  0  0  0
    4.1329   -0.2334   -0.6900 H   0  0  0  0  0  0  0  0  0  0  0  0
    3.5133    1.4397   -0.7210 H   0  0  0  0  0  0  0  0  0  0  0  0
    1.8188    0.3759   -1.5206 H   0  0  0  0  0  0  0  0  0  0  0  0
   -0.9509    0.4639   -0.5316 H   0  0  0  0  0  0  0  0  0  0  0  0
   -1.2003    4.9825   -1.5276 H   0  0  0  0  0  0  0  0  0  0  0  0
   -3.6480    5.0980   -0.8791 H   0  0  0  0  0  0  0  0  0  0  0  0
   -5.9256    1.0791    0.5958 H   0  0  0  0  0  0  0  0  0  0  0  0
   -4.3921   -1.6533   -0.3976 H   0  0  0  0  0  0  0  0  0  0  0  0
   -4.4293   -0.9124    2.6111 H   0  0  0  0  0  0  0  0  0  0  0  0
   -4.7022   -2.5570    1.8909 H   0  0  0  0  0  0  0  0  0  0  0  0
   -2.1444   -0.8561    1.6869 H   0  0  0  0  0  0  0  0  0  0  0  0
   -1.9556   -3.4471    1.5933 H   0  0  0  0  0  0  0  0  0  0  0  0
   -2.6020   -3.3184   -0.0461 H   0  0  0  0  0  0  0  0  0  0  0  0
   -1.4687   -1.3618   -1.3428 H   0  0  0  0  0  0  0  0  0  0  0  0
   -0.8366   -2.9704   -1.6302 H   0  0  0  0  0  0  0  0  0  0  0  0
    0.7057   -2.5077   -3.3861 H   0  0  0  0  0  0  0  0  0  0  0  0
    1.8985   -1.1523   -3.2694 H   0  0  0  0  0  0  0  0  0  0  0  0
    1.6362   -3.5167   -1.2718 H   0  0  0  0  0  0  0  0  0  0  0  0
    2.8432   -2.1753   -1.1698 H   0  0  0  0  0  0  0  0  0  0  0  0
    2.9874   -0.7401    2.7307 H   0  0  0  0  0  0  0  0  0  0  0  0
    2.9512    1.0378    2.7560 H   0  0  0  0  0  0  0  0  0  0  0  0
  1  2  3  0
  2  3  1  0
  3  4  1  0
  4  5  1  0
  5  6  1  0
  6  7  1  0
  7  8  2  0
  7  9  1  0
  9 10  1  0
 10 11  1  0
 11 12  2  0
 11 13  1  0
 13 14  2  0
 14 15  1  0
 15 16  1  0
 16 17  2  0
 17 18  1  0
 18 19  2  0
 19 20  1  0
 20 21  2  0
 19 22  1  0
 22 23  1  0
 23 24  1  0
 24 25  1  0
 25 26  1  0
 26 27  1  0
 27 28  1  0
 28 29  1  0
 29 30  1  0
  6 31  1  0
 31  3  1  0
 28  9  1  0
 21 13  1  0
 24 22  1  0
 30 28  1  0
 21 16  1  0
  3 32  1  1
  4 33  1  0
  4 34  1  0
  5 35  1  0
  5 36  1  0
  9 37  1  6
 10 38  1  0
 14 39  1  0
 15 40  1  0
 18 41  1  0
 22 42  1  0
 23 43  1  0
 23 44  1  0
 24 45  1  0
 25 46  1  0
 25 47  1  0
 27 48  1  0
 27 49  1  0
 29 50  1  0
 29 51  1  0
 30 52  1  0
 30 53  1  0
 31 54  1  0
 31 55  1  0
M  END
>  <candidate_id>  (19) 
CAND_6c9b69bfe2

>  <source_generator>  (19) 
v5_3_model_guided_macrocycle

>  <parent_mol_id>  (19) 
JAK2_9dcdbe0544

>  <canonical_smiles>  (19) 
N#C[C@H]1CCN(C(=O)[C@@H]2NC(=O)c3c[nH]c4ncc(nc34)C3CC3COCC23CC3)C1

>  <inchikey>  (19) 
RGFMCTZPJBFCLO-XILSRCRHSA-N

>  <valid_rdkit>  (19) 
True

>  <unique_flag>  (19) 
True

>  <novel_flag>  (19) 
True

>  <mw>  (19) 
420.473

>  <logp>  (19) 
1.3423

>  <tpsa>  (19) 
124.0

>  <hbd>  (19) 
2

>  <hba>  (19) 
6

>  <rotatable_bonds>  (19) 
1

>  <qed>  (19) 
0.7175

>  <sa_score>  (19) 
4.917

>  <murcko_scaffold>  (19) 
O=C1N[C@@H](C(=O)N2CCCC2)C2(CC2)COCC2CC2c2cnc3[nH]cc1c3n2

>  <max_ring_size>  (19) 
13

>  <has_macrocycle_12_20>  (19) 
True

>  <has_constrained_ring_8_11>  (19) 
False

>  <passes_basic_filters>  (19) 
True

>  <generation_notes>  (19) 
v5_3_model_guided_anchor_pair=24-20;anchor_scores=0.691,0.079;linker_length=3;target_ring=12;linker_prob=0.278;chemotype=oxa

$$$$
CAND_02bca8d718
     RDKit          3D

 55 60  0  0  0  0  0  0  0  0999 V2000
    7.2118    0.9205   -0.7303 N   0  0  0  0  0  0  0  0  0  0  0  0
    6.3949    0.3673   -0.1203 C   0  0  0  0  0  0  0  0  0  0  0  0
    5.3744   -0.3458    0.6456 C   0  0  1  0  0  0  0  0  0  0  0  0
    5.1320    0.2584    2.0279 C   0  0  0  0  0  0  0  0  0  0  0  0
    3.7500   -0.2677    2.3864 C   0  0  0  0  0  0  0  0  0  0  0  0
    3.0621   -0.3853    1.1124 N   0  0  0  0  0  0  0  0  0  0  0  0
    1.6893   -0.5197    1.0564 C   0  0  0  0  0  0  0  0  0  0  0  0
    1.0225   -0.5842    2.0942 O   0  0  0  0  0  0  0  0  0  0  0  0
    1.0123   -0.5620   -0.3393 C   0  0  2  0  0  0  0  0  0  0  0  0
    0.0490    0.5154   -0.4313 N   0  0  0  0  0  0  0  0  0  0  0  0
    0.3657    1.7858   -0.8400 C   0  0  0  0  0  0  0  0  0  0  0  0
    1.5030    2.1295   -1.1446 O   0  0  0  0  0  0  0  0  0  0  0  0
   -0.7823    2.6805   -0.9086 C   0  0  0  0  0  0  0  0  0  0  0  0
   -0.7779    4.0040   -1.3294 C   0  0  0  0  0  0  0  0  0  0  0  0
   -2.0693    4.4803   -1.2917 N   0  0  0  0  0  0  0  0  0  0  0  0
   -2.9100    3.4919   -0.8614 C   0  0  0  0  0  0  0  0  0  0  0  0
   -4.2471    3.5727   -0.7238 N   0  0  0  0  0  0  0  0  0  0  0  0
   -4.7538    2.3862   -0.2779 C   0  0  0  0  0  0  0  0  0  0  0  0
   -4.0176    1.2257    0.0147 C   0  0  0  0  0  0  0  0  0  0  0  0
   -2.6720    1.2186   -0.1360 N   0  0  0  0  0  0  0  0  0  0  0  0
   -2.1335    2.3764   -0.5954 C   0  0  0  0  0  0  0  0  0  0  0  0
   -4.6983   -0.0297    0.5409 C   0  0  0  0  0  0  0  0  0  0  0  0
   -3.9738   -0.8470    1.5913 C   0  0  0  0  0  0  0  0  0  0  0  0
   -4.2428   -1.4551    0.2379 C   0  0  0  0  0  0  0  0  0  0  0  0
   -3.1576   -1.7991   -0.7361 C   0  0  0  0  0  0  0  0  0  0  0  0
   -2.1912   -3.2134   -0.1222 S   0  0  0  0  0  0  0  0  0  0  0  0
   -0.6981   -2.3502    0.4412 C   0  0  0  0  0  0  0  0  0  0  0  0
    0.2929   -1.8943   -0.6315 C   0  0  0  0  0  0  0  0  0  0  0  0
    1.1276   -2.9922   -1.2821 C   0  0  0  0  0  0  0  0  0  0  0  0
    0.1240   -2.2532   -2.1095 C   0  0  0  0  0  0  0  0  0  0  0  0
    3.9948   -0.2570   -0.0011 C   0  0  0  0  0  0  0  0  0  0  0  0
    5.6560   -1.4005    0.7604 H   0  0  0  0  0  0  0  0  0  0  0  0
    5.8917   -0.0301    2.7609 H   0  0  0  0  0  0  0  0  0  0  0  0
    5.1133    1.3551    1.9787 H   0  0  0  0  0  0  0  0  0  0  0  0
    3.2102    0.3934    3.0711 H   0  0  0  0  0  0  0  0  0  0  0  0
    3.8048   -1.2683    2.8294 H   0  0  0  0  0  0  0  0  0  0  0  0
    1.7571   -0.3834   -1.1191 H   0  0  0  0  0  0  0  0  0  0  0  0
   -0.8993    0.3526   -0.1042 H   0  0  0  0  0  0  0  0  0  0  0  0
    0.0362    4.6355   -1.6629 H   0  0  0  0  0  0  0  0  0  0  0  0
   -2.3740    5.4075   -1.5527 H   0  0  0  0  0  0  0  0  0  0  0  0
   -5.8329    2.3911   -0.1453 H   0  0  0  0  0  0  0  0  0  0  0  0
   -5.7723    0.0706    0.6959 H   0  0  0  0  0  0  0  0  0  0  0  0
   -2.9604   -0.5698    1.8574 H   0  0  0  0  0  0  0  0  0  0  0  0
   -4.5486   -1.2175    2.4334 H   0  0  0  0  0  0  0  0  0  0  0  0
   -5.0247   -2.2111    0.2021 H   0  0  0  0  0  0  0  0  0  0  0  0
   -2.4917   -0.9780   -0.9889 H   0  0  0  0  0  0  0  0  0  0  0  0
   -3.6274   -2.1100   -1.6757 H   0  0  0  0  0  0  0  0  0  0  0  0
   -1.0323   -1.5117    1.0553 H   0  0  0  0  0  0  0  0  0  0  0  0
   -0.1732   -3.0314    1.1210 H   0  0  0  0  0  0  0  0  0  0  0  0
    2.1775   -2.8139   -1.4833 H   0  0  0  0  0  0  0  0  0  0  0  0
    0.9090   -4.0275   -1.0374 H   0  0  0  0  0  0  0  0  0  0  0  0
    0.4927   -1.5555   -2.8558 H   0  0  0  0  0  0  0  0  0  0  0  0
   -0.7375   -2.8089   -2.4589 H   0  0  0  0  0  0  0  0  0  0  0  0
    3.8129    0.7090   -0.4855 H   0  0  0  0  0  0  0  0  0  0  0  0
    3.8322   -1.0547   -0.7321 H   0  0  0  0  0  0  0  0  0  0  0  0
  1  2  3  0
  2  3  1  0
  3  4  1  0
  4  5  1  0
  5  6  1  0
  6  7  1  0
  7  8  2  0
  7  9  1  0
  9 10  1  0
 10 11  1  0
 11 12  2  0
 11 13  1  0
 13 14  2  0
 14 15  1  0
 15 16  1  0
 16 17  2  0
 17 18  1  0
 18 19  2  0
 19 20  1  0
 20 21  2  0
 19 22  1  0
 22 23  1  0
 23 24  1  0
 24 25  1  0
 25 26  1  0
 26 27  1  0
 27 28  1  0
 28 29  1  0
 29 30  1  0
  6 31  1  0
 31  3  1  0
 28  9  1  0
 21 13  1  0
 24 22  1  0
 30 28  1  0
 21 16  1  0
  3 32  1  1
  4 33  1  0
  4 34  1  0
  5 35  1  0
  5 36  1  0
  9 37  1  6
 10 38  1  0
 14 39  1  0
 15 40  1  0
 18 41  1  0
 22 42  1  0
 23 43  1  0
 23 44  1  0
 24 45  1  0
 25 46  1  0
 25 47  1  0
 27 48  1  0
 27 49  1  0
 29 50  1  0
 29 51  1  0
 30 52  1  0
 30 53  1  0
 31 54  1  0
 31 55  1  0
M  END
>  <candidate_id>  (20) 
CAND_02bca8d718

>  <source_generator>  (20) 
v5_3_model_guided_macrocycle

>  <parent_mol_id>  (20) 
JAK2_9dcdbe0544

>  <canonical_smiles>  (20) 
N#C[C@H]1CCN(C(=O)[C@@H]2NC(=O)c3c[nH]c4ncc(nc34)C3CC3CSCC23CC3)C1

>  <inchikey>  (20) 
YLWJLPCJNFQMCO-XILSRCRHSA-N

>  <valid_rdkit>  (20) 
True

>  <unique_flag>  (20) 
True

>  <novel_flag>  (20) 
True

>  <mw>  (20) 
436.541

>  <logp>  (20) 
2.0589

>  <tpsa>  (20) 
114.77

>  <hbd>  (20) 
2

>  <hba>  (20) 
6

>  <rotatable_bonds>  (20) 
1

>  <qed>  (20) 
0.7072

>  <sa_score>  (20) 
5.006

>  <murcko_scaffold>  (20) 
O=C1N[C@@H](C(=O)N2CCCC2)C2(CC2)CSCC2CC2c2cnc3[nH]cc1c3n2

>  <max_ring_size>  (20) 
13

>  <has_macrocycle_12_20>  (20) 
True

>  <has_constrained_ring_8_11>  (20) 
False

>  <passes_basic_filters>  (20) 
True

>  <generation_notes>  (20) 
v5_3_model_guided_anchor_pair=24-20;anchor_scores=0.691,0.079;linker_length=3;target_ring=12;linker_prob=0.278;chemotype=thioether

$$$$
CAND_d4292dc600
     RDKit          3D

 56 61  0  0  0  0  0  0  0  0999 V2000
    1.8060    3.4560    4.0736 N   0  0  0  0  0  0  0  0  0  0  0  0
    0.7868    3.3455    3.5310 C   0  0  0  0  0  0  0  0  0  0  0  0
   -0.5027    3.2249    2.8393 C   0  0  1  0  0  0  0  0  0  0  0  0
   -0.4942    3.9140    1.4623 C   0  0  0  0  0  0  0  0  0  0  0  0
   -0.2515    2.7853    0.4526 C   0  0  0  0  0  0  0  0  0  0  0  0
    1.2745    2.5687    0.2061 C   0  0  0  0  0  0  0  0  0  0  0  0
    1.7217    1.3567   -0.4876 N   0  0  0  0  0  0  0  0  0  0  0  0
    1.2468    1.2433   -1.8672 C   0  0  0  0  0  0  0  0  0  0  0  0
    2.0960    0.2243   -2.6481 C   0  0  0  0  0  0  0  0  0  0  0  0
    3.3879    0.7665   -3.2493 C   0  0  0  0  0  0  0  0  0  0  0  0
    2.2270    0.4599   -4.1487 C   0  0  0  0  0  0  0  0  0  0  0  0
    2.0013   -1.2466   -2.1700 C   0  0  0  0  0  0  0  0  0  0  0  0
    2.9164   -2.2473   -2.5522 C   0  0  0  0  0  0  0  0  0  0  0  0
    2.9317   -3.5493   -2.1330 N   0  0  0  0  0  0  0  0  0  0  0  0
    1.9424   -3.7637   -1.2467 C   0  0  0  0  0  0  0  0  0  0  0  0
    1.6869   -4.9225   -0.5678 N   0  0  0  0  0  0  0  0  0  0  0  0
    0.6357   -4.7272    0.2997 C   0  0  0  0  0  0  0  0  0  0  0  0
    0.1821   -3.4231    0.1536 C   0  0  0  0  0  0  0  0  0  0  0  0
    1.0054   -2.8303   -0.8403 C   0  0  0  0  0  0  0  0  0  0  0  0
    0.9886   -1.5656   -1.3307 N   0  0  0  0  0  0  0  0  0  0  0  0
   -0.8769   -2.7735    0.9155 C   0  0  0  0  0  0  0  0  0  0  0  0
   -1.3595   -3.2626    1.9305 O   0  0  0  0  0  0  0  0  0  0  0  0
   -1.2357   -1.5562    0.4052 N   0  0  0  0  0  0  0  0  0  0  0  0
   -2.0718   -0.5773    1.0695 C   0  0  2  0  0  0  0  0  0  0  0  0
   -3.5239   -0.9045    0.8457 C   0  0  0  0  0  0  0  0  0  0  0  0
   -4.2710   -1.8180    1.7868 C   0  0  0  0  0  0  0  0  0  0  0  0
   -4.5837   -0.3484    1.7665 C   0  0  0  0  0  0  0  0  0  0  0  0
   -1.6815    0.7586    0.3826 C   0  0  0  0  0  0  0  0  0  0  0  0
   -1.9607    0.9608   -0.8043 O   0  0  0  0  0  0  0  0  0  0  0  0
   -0.9181    1.6591    1.0985 N   0  0  0  0  0  0  0  0  0  0  0  0
   -0.8553    1.7621    2.5468 C   0  0  0  0  0  0  0  0  0  0  0  0
   -1.2723    3.6794    3.4747 H   0  0  0  0  0  0  0  0  0  0  0  0
    0.2264    4.7342    1.3753 H   0  0  0  0  0  0  0  0  0  0  0  0
   -1.4931    4.3331    1.2812 H   0  0  0  0  0  0  0  0  0  0  0  0
   -0.7288    3.0199   -0.5054 H   0  0  0  0  0  0  0  0  0  0  0  0
    1.7866    2.5456    1.1730 H   0  0  0  0  0  0  0  0  0  0  0  0
    1.6717    3.4503   -0.3137 H   0  0  0  0  0  0  0  0  0  0  0  0
    2.7405    1.3399   -0.4870 H   0  0  0  0  0  0  0  0  0  0  0  0
    1.3125    2.2203   -2.3632 H   0  0  0  0  0  0  0  0  0  0  0  0
    0.2004    0.9358   -1.9044 H   0  0  0  0  0  0  0  0  0  0  0  0
    4.2691    0.1407   -3.3091 H   0  0  0  0  0  0  0  0  0  0  0  0
    3.6349    1.8116   -3.0871 H   0  0  0  0  0  0  0  0  0  0  0  0
    1.6867    1.2916   -4.5891 H   0  0  0  0  0  0  0  0  0  0  0  0
    2.3024   -0.3941   -4.8129 H   0  0  0  0  0  0  0  0  0  0  0  0
    3.7166   -2.0198   -3.2499 H   0  0  0  0  0  0  0  0  0  0  0  0
    2.2277   -5.7689   -0.6725 H   0  0  0  0  0  0  0  0  0  0  0  0
    0.3033   -5.5202    0.9577 H   0  0  0  0  0  0  0  0  0  0  0  0
   -0.7587   -1.2426   -0.4413 H   0  0  0  0  0  0  0  0  0  0  0  0
   -1.8227   -0.5844    2.1334 H   0  0  0  0  0  0  0  0  0  0  0  0
   -3.7685   -0.9701   -0.2104 H   0  0  0  0  0  0  0  0  0  0  0  0
   -4.9901   -2.5043    1.3540 H   0  0  0  0  0  0  0  0  0  0  0  0
   -3.7446   -2.2208    2.6454 H   0  0  0  0  0  0  0  0  0  0  0  0
   -4.2817    0.2402    2.6245 H   0  0  0  0  0  0  0  0  0  0  0  0
   -5.5232   -0.0371    1.3234 H   0  0  0  0  0  0  0  0  0  0  0  0
   -1.8328    1.5048    2.9682 H   0  0  0  0  0  0  0  0  0  0  0  0
   -0.1131    1.0455    2.9152 H   0  0  0  0  0  0  0  0  0  0  0  0
  1  2  3  0
  2  3  1  0
  3  4  1  0
  4  5  1  0
  5  6  1  0
  6  7  1  0
  7  8  1  0
  8  9  1  0
  9 10  1  0
 10 11  1  0
  9 12  1  0
 12 13  2  0
 13 14  1  0
 14 15  2  0
 15 16  1  0
 16 17  1  0
 17 18  2  0
 18 19  1  0
 19 20  2  0
 18 21  1  0
 21 22  2  0
 21 23  1  0
 23 24  1  0
 24 25  1  0
 25 26  1  0
 26 27  1  0
 24 28  1  0
 28 29  2  0
 28 30  1  0
 30 31  1  0
 31  3  1  0
 30  5  1  0
 11  9  1  0
 20 12  1  0
 27 25  1  0
 19 15  1  0
  3 32  1  1
  4 33  1  0
  4 34  1  0
  5 35  1  0
  6 36  1  0
  6 37  1  0
  7 38  1  0
  8 39  1  0
  8 40  1  0
 10 41  1  0
 10 42  1  0
 11 43  1  0
 11 44  1  0
 13 45  1  0
 16 46  1  0
 17 47  1  0
 23 48  1  0
 24 49  1  1
 25 50  1  0
 26 51  1  0
 26 52  1  0
 27 53  1  0
 27 54  1  0
 31 55  1  0
 31 56  1  0
M  END
>  <candidate_id>  (21) 
CAND_d4292dc600

>  <source_generator>  (21) 
v5_3_model_guided_macrocycle

>  <parent_mol_id>  (21) 
JAK2_9dcdbe0544

>  <canonical_smiles>  (21) 
N#C[C@H]1CC2CNCC3(CC3)c3cnc4[nH]cc(c4n3)C(=O)N[C@H](C3CC3)C(=O)N2C1

>  <inchikey>  (21) 
GDOIQDMSOKVZOZ-ZYFOBHMOSA-N

>  <valid_rdkit>  (21) 
True

>  <unique_flag>  (21) 
True

>  <novel_flag>  (21) 
True

>  <mw>  (21) 
419.489

>  <logp>  (21) 
0.8418

>  <tpsa>  (21) 
126.8

>  <hbd>  (21) 
3

>  <hba>  (21) 
6

>  <rotatable_bonds>  (21) 
1

>  <qed>  (21) 
0.6287

>  <sa_score>  (21) 
4.661

>  <murcko_scaffold>  (21) 
O=C1N[C@H](C2CC2)C(=O)N2CCCC2CNCC2(CC2)c2cnc3[nH]cc1c3n2

>  <max_ring_size>  (21) 
14

>  <has_macrocycle_12_20>  (21) 
True

>  <has_constrained_ring_8_11>  (21) 
False

>  <passes_basic_filters>  (21) 
True

>  <generation_notes>  (21) 
v5_3_model_guided_anchor_pair=19-4;anchor_scores=0.691,0.079;linker_length=3;target_ring=13;linker_prob=0.234;chemotype=aza

$$$$
CAND_a6e2aca7fb
     RDKit          3D

 55 60  0  0  0  0  0  0  0  0999 V2000
   -3.0374    5.4654    1.0818 N   0  0  0  0  0  0  0  0  0  0  0  0
   -2.7380    4.6511    0.3119 C   0  0  0  0  0  0  0  0  0  0  0  0
   -2.3727    3.6274   -0.6658 C   0  0  1  0  0  0  0  0  0  0  0  0
   -0.9380    3.7668   -1.1719 C   0  0  0  0  0  0  0  0  0  0  0  0
   -0.5938    2.3542   -1.6769 C   0  0  0  0  0  0  0  0  0  0  0  0
    0.9136    2.0122   -1.5748 C   0  0  0  0  0  0  0  0  0  0  0  0
    1.5943    2.0468    0.1268 S   0  0  0  0  0  0  0  0  0  0  0  0
    3.2586    1.3788   -0.1712 C   0  0  0  0  0  0  0  0  0  0  0  0
    3.3319   -0.1371   -0.2270 C   0  0  0  0  0  0  0  0  0  0  0  0
    4.5173   -0.7506   -0.9688 C   0  0  0  0  0  0  0  0  0  0  0  0
    3.1525   -0.8220   -1.5765 C   0  0  0  0  0  0  0  0  0  0  0  0
    2.8315   -0.8697    1.0188 C   0  0  0  0  0  0  0  0  0  0  0  0
    3.6791   -1.1813    2.0947 C   0  0  0  0  0  0  0  0  0  0  0  0
    3.3119   -1.8009    3.2532 N   0  0  0  0  0  0  0  0  0  0  0  0
    1.9868   -2.0441    3.2546 C   0  0  0  0  0  0  0  0  0  0  0  0
    1.2588   -2.5978    4.2707 N   0  0  0  0  0  0  0  0  0  0  0  0
   -0.0753   -2.6055    3.9315 C   0  0  0  0  0  0  0  0  0  0  0  0
   -0.2091   -2.0707    2.6569 C   0  0  0  0  0  0  0  0  0  0  0  0
    1.1049   -1.7501    2.2268 C   0  0  0  0  0  0  0  0  0  0  0  0
    1.5166   -1.1907    1.0607 N   0  0  0  0  0  0  0  0  0  0  0  0
   -1.4541   -1.8154    1.9457 C   0  0  0  0  0  0  0  0  0  0  0  0
   -2.5557   -1.9291    2.4724 O   0  0  0  0  0  0  0  0  0  0  0  0
   -1.2715   -1.3841    0.6582 N   0  0  0  0  0  0  0  0  0  0  0  0
   -2.3109   -0.7916   -0.1610 C   0  0  2  0  0  0  0  0  0  0  0  0
   -3.1855   -1.8778   -0.7347 C   0  0  0  0  0  0  0  0  0  0  0  0
   -2.7070   -2.8633   -1.7739 C   0  0  0  0  0  0  0  0  0  0  0  0
   -3.7472   -1.8359   -2.1360 C   0  0  0  0  0  0  0  0  0  0  0  0
   -1.5407    0.1027   -1.1719 C   0  0  0  0  0  0  0  0  0  0  0  0
   -0.8667   -0.3827   -2.0866 O   0  0  0  0  0  0  0  0  0  0  0  0
   -1.4959    1.4658   -0.9315 N   0  0  0  0  0  0  0  0  0  0  0  0
   -2.3837    2.2266   -0.0651 C   0  0  0  0  0  0  0  0  0  0  0  0
   -3.0576    3.6623   -1.5230 H   0  0  0  0  0  0  0  0  0  0  0  0
   -0.8515    4.5119   -1.9705 H   0  0  0  0  0  0  0  0  0  0  0  0
   -0.2779    4.0929   -0.3607 H   0  0  0  0  0  0  0  0  0  0  0  0
   -0.8879    2.2718   -2.7319 H   0  0  0  0  0  0  0  0  0  0  0  0
    1.4806    2.7337   -2.1731 H   0  0  0  0  0  0  0  0  0  0  0  0
    1.0943    1.0230   -1.9958 H   0  0  0  0  0  0  0  0  0  0  0  0
    3.6613    1.8337   -1.0835 H   0  0  0  0  0  0  0  0  0  0  0  0
    3.8960    1.7253    0.6505 H   0  0  0  0  0  0  0  0  0  0  0  0
    5.2422   -0.0899   -1.4321 H   0  0  0  0  0  0  0  0  0  0  0  0
    4.9481   -1.6814   -0.6145 H   0  0  0  0  0  0  0  0  0  0  0  0
    2.9673   -0.2220   -2.4597 H   0  0  0  0  0  0  0  0  0  0  0  0
    2.6448   -1.7816   -1.5992 H   0  0  0  0  0  0  0  0  0  0  0  0
    4.7332   -0.9214    2.0459 H   0  0  0  0  0  0  0  0  0  0  0  0
    1.6553   -2.9031    5.1481 H   0  0  0  0  0  0  0  0  0  0  0  0
   -0.8229   -2.9662    4.6268 H   0  0  0  0  0  0  0  0  0  0  0  0
   -0.3171   -1.3406    0.3001 H   0  0  0  0  0  0  0  0  0  0  0  0
   -2.9347   -0.1839    0.4978 H   0  0  0  0  0  0  0  0  0  0  0  0
   -3.8353   -2.2801    0.0395 H   0  0  0  0  0  0  0  0  0  0  0  0
   -3.0230   -3.8955   -1.6706 H   0  0  0  0  0  0  0  0  0  0  0  0
   -1.7111   -2.7536   -2.1873 H   0  0  0  0  0  0  0  0  0  0  0  0
   -4.7649   -2.1807   -2.2838 H   0  0  0  0  0  0  0  0  0  0  0  0
   -3.4501   -1.0470   -2.8169 H   0  0  0  0  0  0  0  0  0  0  0  0
   -1.9717    2.1924    0.9503 H   0  0  0  0  0  0  0  0  0  0  0  0
   -3.3920    1.8025   -0.0562 H   0  0  0  0  0  0  0  0  0  0  0  0
  1  2  3  0
  2  3  1  0
  3  4  1  0
  4  5  1  0
  5  6  1  0
  6  7  1  0
  7  8  1  0
  8  9  1  0
  9 10  1  0
 10 11  1  0
  9 12  1  0
 12 13  2  0
 13 14  1  0
 14 15  2  0
 15 16  1  0
 16 17  1  0
 17 18  2  0
 18 19  1  0
 19 20  2  0
 18 21  1  0
 21 22  2  0
 21 23  1  0
 23 24  1  0
 24 25  1  0
 25 26  1  0
 26 27  1  0
 24 28  1  0
 28 29  2  0
 28 30  1  0
 30 31  1  0
 31  3  1  0
 30  5  1  0
 11  9  1  0
 20 12  1  0
 27 25  1  0
 19 15  1  0
  3 32  1  6
  4 33  1  0
  4 34  1  0
  5 35  1  0
  6 36  1  0
  6 37  1  0
  8 38  1  0
  8 39  1  0
 10 40  1  0
 10 41  1  0
 11 42  1  0
 11 43  1  0
 13 44  1  0
 16 45  1  0
 17 46  1  0
 23 47  1  0
 24 48  1  1
 25 49  1  0
 26 50  1  0
 26 51  1  0
 27 52  1  0
 27 53  1  0
 31 54  1  0
 31 55  1  0
M  END
>  <candidate_id>  (22) 
CAND_a6e2aca7fb

>  <source_generator>  (22) 
v5_3_model_guided_macrocycle

>  <parent_mol_id>  (22) 
JAK2_9dcdbe0544

>  <canonical_smiles>  (22) 
N#C[C@H]1CC2CSCC3(CC3)c3cnc4[nH]cc(c4n3)C(=O)N[C@H](C3CC3)C(=O)N2C1

>  <inchikey>  (22) 
LPLMSPHZWKDSFN-ZYFOBHMOSA-N

>  <valid_rdkit>  (22) 
True

>  <unique_flag>  (22) 
True

>  <novel_flag>  (22) 
True

>  <mw>  (22) 
436.541

>  <logp>  (22) 
1.9854

>  <tpsa>  (22) 
114.77

>  <hbd>  (22) 
2

>  <hba>  (22) 
6

>  <rotatable_bonds>  (22) 
1

>  <qed>  (22) 
0.7065

>  <sa_score>  (22) 
4.756

>  <murcko_scaffold>  (22) 
O=C1N[C@H](C2CC2)C(=O)N2CCCC2CSCC2(CC2)c2cnc3[nH]cc1c3n2

>  <max_ring_size>  (22) 
14

>  <has_macrocycle_12_20>  (22) 
True

>  <has_constrained_ring_8_11>  (22) 
False

>  <passes_basic_filters>  (22) 
True

>  <generation_notes>  (22) 
v5_3_model_guided_anchor_pair=19-4;anchor_scores=0.691,0.079;linker_length=3;target_ring=13;linker_prob=0.234;chemotype=thioether

$$$$
CAND_76774df791
     RDKit          3D

 55 60  0  0  0  0  0  0  0  0999 V2000
   -0.4757    3.2862    4.4541 N   0  0  0  0  0  0  0  0  0  0  0  0
   -0.8630    3.1982    3.3644 C   0  0  0  0  0  0  0  0  0  0  0  0
   -1.3594    3.0827    1.9939 C   0  0  1  0  0  0  0  0  0  0  0  0
   -0.3726    3.6054    0.9561 C   0  0  0  0  0  0  0  0  0  0  0  0
   -0.8262    2.9196   -0.3420 C   0  0  0  0  0  0  0  0  0  0  0  0
    0.3103    2.9140   -1.4047 C   0  0  0  0  0  0  0  0  0  0  0  0
    1.5971    2.4490   -0.9570 O   0  0  0  0  0  0  0  0  0  0  0  0
    1.5686    1.0440   -0.7179 C   0  0  0  0  0  0  0  0  0  0  0  0
    2.9404    0.3879   -0.5396 C   0  0  0  0  0  0  0  0  0  0  0  0
    4.1098    1.2329   -0.0700 C   0  0  0  0  0  0  0  0  0  0  0  0
    4.0530    0.7620   -1.4977 C   0  0  0  0  0  0  0  0  0  0  0  0
    2.7833   -1.0653   -0.0587 C   0  0  0  0  0  0  0  0  0  0  0  0
    3.8157   -1.9441    0.2987 C   0  0  0  0  0  0  0  0  0  0  0  0
    3.6600   -3.2102    0.8063 N   0  0  0  0  0  0  0  0  0  0  0  0
    2.3524   -3.5078    0.9542 C   0  0  0  0  0  0  0  0  0  0  0  0
    1.7996   -4.6406    1.4881 N   0  0  0  0  0  0  0  0  0  0  0  0
    0.4230   -4.5141    1.5217 C   0  0  0  0  0  0  0  0  0  0  0  0
    0.0767   -3.2905    0.9646 C   0  0  0  0  0  0  0  0  0  0  0  0
    1.3015   -2.6841    0.6050 C   0  0  0  0  0  0  0  0  0  0  0  0
    1.5000   -1.4708    0.0587 N   0  0  0  0  0  0  0  0  0  0  0  0
   -1.2516   -2.6956    0.8349 C   0  0  0  0  0  0  0  0  0  0  0  0
   -2.2309   -3.1285    1.4312 O   0  0  0  0  0  0  0  0  0  0  0  0
   -1.2846   -1.5856    0.0192 N   0  0  0  0  0  0  0  0  0  0  0  0
   -2.4191   -0.6863   -0.1312 C   0  0  2  0  0  0  0  0  0  0  0  0
   -3.5129   -1.3906   -0.9042 C   0  0  0  0  0  0  0  0  0  0  0  0
   -4.4158   -0.7072   -1.9034 C   0  0  0  0  0  0  0  0  0  0  0  0
   -3.4043   -1.7208   -2.3732 C   0  0  0  0  0  0  0  0  0  0  0  0
   -1.8663    0.6510   -0.7441 C   0  0  0  0  0  0  0  0  0  0  0  0
   -1.7209    0.8015   -1.9599 O   0  0  0  0  0  0  0  0  0  0  0  0
   -1.3988    1.6337    0.1218 N   0  0  0  0  0  0  0  0  0  0  0  0
   -1.5509    1.6291    1.5741 C   0  0  0  0  0  0  0  0  0  0  0  0
   -2.3096    3.6219    1.8886 H   0  0  0  0  0  0  0  0  0  0  0  0
   -0.3940    4.6971    0.8710 H   0  0  0  0  0  0  0  0  0  0  0  0
    0.6511    3.3168    1.2261 H   0  0  0  0  0  0  0  0  0  0  0  0
   -1.6757    3.4684   -0.7704 H   0  0  0  0  0  0  0  0  0  0  0  0
    0.4744    3.9550   -1.7084 H   0  0  0  0  0  0  0  0  0  0  0  0
    0.0279    2.3812   -2.3176 H   0  0  0  0  0  0  0  0  0  0  0  0
    1.0575    0.5424   -1.5488 H   0  0  0  0  0  0  0  0  0  0  0  0
    1.0128    0.8982    0.2115 H   0  0  0  0  0  0  0  0  0  0  0  0
    4.8569    0.7998    0.5838 H   0  0  0  0  0  0  0  0  0  0  0  0
    3.9417    2.2887    0.1189 H   0  0  0  0  0  0  0  0  0  0  0  0
    4.7578    0.0034   -1.8163 H   0  0  0  0  0  0  0  0  0  0  0  0
    3.8416    1.5023   -2.2631 H   0  0  0  0  0  0  0  0  0  0  0  0
    4.8533   -1.6384    0.1973 H   0  0  0  0  0  0  0  0  0  0  0  0
    2.3364   -5.4214    1.8385 H   0  0  0  0  0  0  0  0  0  0  0  0
   -0.1923   -5.2967    1.9476 H   0  0  0  0  0  0  0  0  0  0  0  0
   -0.4202   -1.3252   -0.4491 H   0  0  0  0  0  0  0  0  0  0  0  0
   -2.8213   -0.5012    0.8668 H   0  0  0  0  0  0  0  0  0  0  0  0
   -3.9818   -2.1478   -0.2789 H   0  0  0  0  0  0  0  0  0  0  0  0
   -4.2480    0.3287   -2.1719 H   0  0  0  0  0  0  0  0  0  0  0  0
   -5.4614   -0.9958   -1.9209 H   0  0  0  0  0  0  0  0  0  0  0  0
   -3.7668   -2.6895   -2.6991 H   0  0  0  0  0  0  0  0  0  0  0  0
   -2.5476   -1.3664   -2.9344 H   0  0  0  0  0  0  0  0  0  0  0  0
   -0.7913    0.9555    1.9876 H   0  0  0  0  0  0  0  0  0  0  0  0
   -2.5398    1.2680    1.8688 H   0  0  0  0  0  0  0  0  0  0  0  0
  1  2  3  0
  2  3  1  0
  3  4  1  0
  4  5  1  0
  5  6  1  0
  6  7  1  0
  7  8  1  0
  8  9  1  0
  9 10  1  0
 10 11  1  0
  9 12  1  0
 12 13  2  0
 13 14  1  0
 14 15  2  0
 15 16  1  0
 16 17  1  0
 17 18  2  0
 18 19  1  0
 19 20  2  0
 18 21  1  0
 21 22  2  0
 21 23  1  0
 23 24  1  0
 24 25  1  0
 25 26  1  0
 26 27  1  0
 24 28  1  0
 28 29  2  0
 28 30  1  0
 30 31  1  0
 31  3  1  0
 30  5  1  0
 11  9  1  0
 20 12  1  0
 27 25  1  0
 19 15  1  0
  3 32  1  1
  4 33  1  0
  4 34  1  0
  5 35  1  0
  6 36  1  0
  6 37  1  0
  8 38  1  0
  8 39  1  0
 10 40  1  0
 10 41  1  0
 11 42  1  0
 11 43  1  0
 13 44  1  0
 16 45  1  0
 17 46  1  0
 23 47  1  0
 24 48  1  1
 25 49  1  0
 26 50  1  0
 26 51  1  0
 27 52  1  0
 27 53  1  0
 31 54  1  0
 31 55  1  0
M  END
>  <candidate_id>  (23) 
CAND_76774df791

>  <source_generator>  (23) 
v5_3_model_guided_macrocycle

>  <parent_mol_id>  (23) 
JAK2_9dcdbe0544

>  <canonical_smiles>  (23) 
N#C[C@H]1CC2COCC3(CC3)c3cnc4[nH]cc(c4n3)C(=O)N[C@H](C3CC3)C(=O)N2C1

>  <inchikey>  (23) 
CJARQMPCFPOYTL-ZYFOBHMOSA-N

>  <valid_rdkit>  (23) 
True

>  <unique_flag>  (23) 
True

>  <novel_flag>  (23) 
True

>  <mw>  (23) 
420.473

>  <logp>  (23) 
1.2688

>  <tpsa>  (23) 
124.0

>  <hbd>  (23) 
2

>  <hba>  (23) 
6

>  <rotatable_bonds>  (23) 
1

>  <qed>  (23) 
0.716

>  <sa_score>  (23) 
4.667

>  <murcko_scaffold>  (23) 
O=C1N[C@H](C2CC2)C(=O)N2CCCC2COCC2(CC2)c2cnc3[nH]cc1c3n2

>  <max_ring_size>  (23) 
14

>  <has_macrocycle_12_20>  (23) 
True

>  <has_constrained_ring_8_11>  (23) 
False

>  <passes_basic_filters>  (23) 
True

>  <generation_notes>  (23) 
v5_3_model_guided_anchor_pair=19-4;anchor_scores=0.691,0.079;linker_length=3;target_ring=13;linker_prob=0.234;chemotype=oxa

$$$$
CAND_7f7760bbec
     RDKit          3D

 57 62  0  0  0  0  0  0  0  0999 V2000
   -4.5403   -2.7428    1.7860 N   0  0  0  0  0  0  0  0  0  0  0  0
   -3.4078   -2.4919    1.7999 C   0  0  0  0  0  0  0  0  0  0  0  0
   -1.9703   -2.1819    1.8382 C   0  0  1  0  0  0  0  0  0  0  0  0
   -1.1576   -3.1557    0.9879 C   0  0  0  0  0  0  0  0  0  0  0  0
   -1.2522   -2.5809   -0.4353 C   0  0  0  0  0  0  0  0  0  0  0  0
   -0.0738   -3.0113   -1.3469 C   0  0  0  0  0  0  0  0  0  0  0  0
    1.3766   -2.8120   -0.8503 C   0  0  0  0  0  0  0  0  0  0  0  0
    1.6515   -1.3628   -0.4981 C   0  0  0  0  0  0  0  0  0  0  0  0
    3.0550   -0.9012   -0.0902 C   0  0  0  0  0  0  0  0  0  0  0  0
    4.2556   -1.4211   -0.8588 C   0  0  0  0  0  0  0  0  0  0  0  0
    4.0152   -1.8854    0.5515 C   0  0  0  0  0  0  0  0  0  0  0  0
    3.0371    0.5812    0.3620 C   0  0  0  0  0  0  0  0  0  0  0  0
    4.1323    1.3017    0.8626 C   0  0  0  0  0  0  0  0  0  0  0  0
    4.1260    2.6155    1.2532 N   0  0  0  0  0  0  0  0  0  0  0  0
    2.9050    3.1594    1.0764 C   0  0  0  0  0  0  0  0  0  0  0  0
    2.5210    4.4497    1.3202 N   0  0  0  0  0  0  0  0  0  0  0  0
    1.1940    4.6108    0.9753 C   0  0  0  0  0  0  0  0  0  0  0  0
    0.7039    3.3960    0.5133 C   0  0  0  0  0  0  0  0  0  0  0  0
    1.7941    2.4973    0.5904 C   0  0  0  0  0  0  0  0  0  0  0  0
    1.8365    1.1958    0.2411 N   0  0  0  0  0  0  0  0  0  0  0  0
   -0.6370    3.1108    0.0045 C   0  0  0  0  0  0  0  0  0  0  0  0
   -1.4586    3.9957   -0.1991 O   0  0  0  0  0  0  0  0  0  0  0  0
   -0.8658    1.7722   -0.2379 N   0  0  0  0  0  0  0  0  0  0  0  0
   -1.9568    1.2478   -1.0482 C   0  0  2  0  0  0  0  0  0  0  0  0
   -3.3101    1.5950   -0.4739 C   0  0  0  0  0  0  0  0  0  0  0  0
   -4.5826    1.1219   -1.1382 C   0  0  0  0  0  0  0  0  0  0  0  0
   -4.2110    2.5741   -1.1927 C   0  0  0  0  0  0  0  0  0  0  0  0
   -1.7673   -0.2872   -1.2967 C   0  0  0  0  0  0  0  0  0  0  0  0
   -1.9474   -0.7490   -2.4289 O   0  0  0  0  0  0  0  0  0  0  0  0
   -1.4613   -1.1353   -0.2358 N   0  0  0  0  0  0  0  0  0  0  0  0
   -1.6759   -0.8354    1.1797 C   0  0  0  0  0  0  0  0  0  0  0  0
   -1.6359   -2.1889    2.8813 H   0  0  0  0  0  0  0  0  0  0  0  0
   -1.5171   -4.1893    1.0334 H   0  0  0  0  0  0  0  0  0  0  0  0
   -0.1266   -3.1468    1.3560 H   0  0  0  0  0  0  0  0  0  0  0  0
   -2.1753   -2.9479   -0.9054 H   0  0  0  0  0  0  0  0  0  0  0  0
   -0.1684   -2.5152   -2.3199 H   0  0  0  0  0  0  0  0  0  0  0  0
   -0.1927   -4.0843   -1.5489 H   0  0  0  0  0  0  0  0  0  0  0  0
    1.5729   -3.4639    0.0068 H   0  0  0  0  0  0  0  0  0  0  0  0
    2.0532   -3.1429   -1.6460 H   0  0  0  0  0  0  0  0  0  0  0  0
    1.0131   -1.1285    0.3563 H   0  0  0  0  0  0  0  0  0  0  0  0
    1.3310   -0.7441   -1.3469 H   0  0  0  0  0  0  0  0  0  0  0  0
    4.0997   -2.1298   -1.6644 H   0  0  0  0  0  0  0  0  0  0  0  0
    5.0947   -0.7593   -1.0443 H   0  0  0  0  0  0  0  0  0  0  0  0
    4.6944   -1.5437    1.3244 H   0  0  0  0  0  0  0  0  0  0  0  0
    3.7100   -2.9155    0.6953 H   0  0  0  0  0  0  0  0  0  0  0  0
    5.1014    0.8221    0.9664 H   0  0  0  0  0  0  0  0  0  0  0  0
    3.1377    5.1668    1.6754 H   0  0  0  0  0  0  0  0  0  0  0  0
    0.7101    5.5745    1.0751 H   0  0  0  0  0  0  0  0  0  0  0  0
   -0.0720    1.1503   -0.1020 H   0  0  0  0  0  0  0  0  0  0  0  0
   -1.8455    1.7268   -2.0300 H   0  0  0  0  0  0  0  0  0  0  0  0
   -3.3059    1.6751    0.6063 H   0  0  0  0  0  0  0  0  0  0  0  0
   -5.4098    0.8309   -0.5001 H   0  0  0  0  0  0  0  0  0  0  0  0
   -4.5177    0.5518   -2.0592 H   0  0  0  0  0  0  0  0  0  0  0  0
   -3.8829    2.9858   -2.1407 H   0  0  0  0  0  0  0  0  0  0  0  0
   -4.7744    3.2744   -0.5860 H   0  0  0  0  0  0  0  0  0  0  0  0
   -2.4772   -0.1150    1.3330 H   0  0  0  0  0  0  0  0  0  0  0  0
   -0.7448   -0.4148    1.5730 H   0  0  0  0  0  0  0  0  0  0  0  0
  1  2  3  0
  2  3  1  0
  3  4  1  0
  4  5  1  0
  5  6  1  0
  6  7  1  0
  7  8  1  0
  8  9  1  0
  9 10  1  0
 10 11  1  0
  9 12  1  0
 12 13  2  0
 13 14  1  0
 14 15  2  0
 15 16  1  0
 16 17  1  0
 17 18  2  0
 18 19  1  0
 19 20  2  0
 18 21  1  0
 21 22  2  0
 21 23  1  0
 23 24  1  0
 24 25  1  0
 25 26  1  0
 26 27  1  0
 24 28  1  0
 28 29  2  0
 28 30  1  0
 30 31  1  0
 31  3  1  0
 30  5  1  0
 11  9  1  0
 20 12  1  0
 27 25  1  0
 19 15  1  0
  3 32  1  1
  4 33  1  0
  4 34  1  0
  5 35  1  0
  6 36  1  0
  6 37  1  0
  7 38  1  0
  7 39  1  0
  8 40  1  0
  8 41  1  0
 10 42  1  0
 10 43  1  0
 11 44  1  0
 11 45  1  0
 13 46  1  0
 16 47  1  0
 17 48  1  0
 23 49  1  0
 24 50  1  6
 25 51  1  0
 26 52  1  0
 26 53  1  0
 27 54  1  0
 27 55  1  0
 31 56  1  0
 31 57  1  0
M  END
>  <candidate_id>  (24) 
CAND_7f7760bbec

>  <source_generator>  (24) 
v5_3_model_guided_macrocycle

>  <parent_mol_id>  (24) 
JAK2_9dcdbe0544

>  <canonical_smiles>  (24) 
N#C[C@H]1CC2CCCC3(CC3)c3cnc4[nH]cc(c4n3)C(=O)N[C@H](C3CC3)C(=O)N2C1

>  <inchikey>  (24) 
SZNOMDJPNRVXHW-JGNDPHQUSA-N

>  <valid_rdkit>  (24) 
True

>  <unique_flag>  (24) 
True

>  <novel_flag>  (24) 
True

>  <mw>  (24) 
418.501

>  <logp>  (24) 
2.4225

>  <tpsa>  (24) 
114.77

>  <hbd>  (24) 
2

>  <hba>  (24) 
5

>  <rotatable_bonds>  (24) 
1

>  <qed>  (24) 
0.7381

>  <sa_score>  (24) 
4.656

>  <murcko_scaffold>  (24) 
O=C1N[C@H](C2CC2)C(=O)N2CCCC2CCCC2(CC2)c2cnc3[nH]cc1c3n2

>  <max_ring_size>  (24) 
14

>  <has_macrocycle_12_20>  (24) 
True

>  <has_constrained_ring_8_11>  (24) 
False

>  <passes_basic_filters>  (24) 
True

>  <generation_notes>  (24) 
v5_3_model_guided_anchor_pair=19-4;anchor_scores=0.691,0.079;linker_length=3;target_ring=13;linker_prob=0.234;chemotype=alkyl

$$$$
CAND_423486dce5
     RDKit          3D

 60 65  0  0  0  0  0  0  0  0999 V2000
    7.5633    2.0286   -2.8403 N   0  0  0  0  0  0  0  0  0  0  0  0
    6.9082    1.3714   -2.1441 C   0  0  0  0  0  0  0  0  0  0  0  0
    6.1058    0.5378   -1.2841 C   0  0  0  0  0  0  0  0  0  0  0  0
    5.5513    1.2193   -0.0206 C   0  0  0  0  0  0  0  0  0  0  0  0
    4.2826    0.6077   -0.3617 N   0  0  0  0  0  0  0  0  0  0  0  0
    3.1211    0.5421    0.3561 C   0  0  0  0  0  0  0  0  0  0  0  0
    3.0704    0.9425    1.5218 O   0  0  0  0  0  0  0  0  0  0  0  0
    1.9012   -0.0818   -0.3790 C   0  0  2  0  0  0  0  0  0  0  0  0
    0.7483    0.7618   -0.1160 N   0  0  0  0  0  0  0  0  0  0  0  0
    0.6691    2.0379   -0.6209 C   0  0  0  0  0  0  0  0  0  0  0  0
    1.5333    2.5169   -1.3498 O   0  0  0  0  0  0  0  0  0  0  0  0
   -0.4785    2.8001   -0.1583 C   0  0  0  0  0  0  0  0  0  0  0  0
   -0.4965    4.1770    0.0301 C   0  0  0  0  0  0  0  0  0  0  0  0
   -1.7230    4.5332    0.5347 N   0  0  0  0  0  0  0  0  0  0  0  0
   -2.5122    3.4237    0.6398 C   0  0  0  0  0  0  0  0  0  0  0  0
   -3.7794    3.3922    1.0934 N   0  0  0  0  0  0  0  0  0  0  0  0
   -4.2842    2.1301    1.0093 C   0  0  0  0  0  0  0  0  0  0  0  0
   -3.6113    1.0020    0.5137 C   0  0  0  0  0  0  0  0  0  0  0  0
   -2.3146    1.0931    0.1238 N   0  0  0  0  0  0  0  0  0  0  0  0
   -1.7761    2.3368    0.1873 C   0  0  0  0  0  0  0  0  0  0  0  0
   -4.3064   -0.3610    0.3588 C   0  0  0  0  0  0  0  0  0  0  0  0
   -3.8194   -1.4506    1.3132 C   0  0  0  0  0  0  0  0  0  0  0  0
   -2.8691   -2.4931    0.6992 C   0  0  0  0  0  0  0  0  0  0  0  0
   -1.5827   -1.8817    0.1488 C   0  0  0  0  0  0  0  0  0  0  0  0
   -0.5951   -2.9210   -0.3775 C   0  0  0  0  0  0  0  0  0  0  0  0
    0.6660   -2.2700   -0.9618 C   0  0  0  0  0  0  0  0  0  0  0  0
    1.5756   -1.5368    0.0340 C   0  0  0  0  0  0  0  0  0  0  0  0
    1.5618   -1.8987    1.5191 C   0  0  0  0  0  0  0  0  0  0  0  0
    2.6710   -2.4027    0.6532 C   0  0  0  0  0  0  0  0  0  0  0  0
   -5.7788   -0.4017   -0.0503 C   0  0  0  0  0  0  0  0  0  0  0  0
   -4.7341   -0.7537   -1.0553 C   0  0  0  0  0  0  0  0  0  0  0  0
    4.6463    0.3277   -1.7324 C   0  0  0  0  0  0  0  0  0  0  0  0
    6.6024   -0.4146   -1.0502 H   0  0  0  0  0  0  0  0  0  0  0  0
    5.9764    0.8650    0.9221 H   0  0  0  0  0  0  0  0  0  0  0  0
    5.5030    2.3128   -0.0277 H   0  0  0  0  0  0  0  0  0  0  0  0
    2.0858   -0.0538   -1.4586 H   0  0  0  0  0  0  0  0  0  0  0  0
    0.0238    0.4408    0.5127 H   0  0  0  0  0  0  0  0  0  0  0  0
    0.2761    4.9191   -0.1282 H   0  0  0  0  0  0  0  0  0  0  0  0
   -2.0205    5.4644    0.7891 H   0  0  0  0  0  0  0  0  0  0  0  0
   -5.3116    2.0442    1.3518 H   0  0  0  0  0  0  0  0  0  0  0  0
   -4.6858   -1.9862    1.7219 H   0  0  0  0  0  0  0  0  0  0  0  0
   -3.3295   -0.9870    2.1794 H   0  0  0  0  0  0  0  0  0  0  0  0
   -2.6129   -3.2202    1.4800 H   0  0  0  0  0  0  0  0  0  0  0  0
   -3.3781   -3.0576   -0.0893 H   0  0  0  0  0  0  0  0  0  0  0  0
   -1.8232   -1.2095   -0.6800 H   0  0  0  0  0  0  0  0  0  0  0  0
   -1.1163   -1.2942    0.9443 H   0  0  0  0  0  0  0  0  0  0  0  0
   -1.0828   -3.4961   -1.1748 H   0  0  0  0  0  0  0  0  0  0  0  0
   -0.3383   -3.6423    0.4050 H   0  0  0  0  0  0  0  0  0  0  0  0
    0.3606   -1.5826   -1.7609 H   0  0  0  0  0  0  0  0  0  0  0  0
    1.2565   -3.0487   -1.4616 H   0  0  0  0  0  0  0  0  0  0  0  0
    0.8649   -2.6295    1.9101 H   0  0  0  0  0  0  0  0  0  0  0  0
    1.7938   -1.1312    2.2515 H   0  0  0  0  0  0  0  0  0  0  0  0
    3.6623   -2.0012    0.8284 H   0  0  0  0  0  0  0  0  0  0  0  0
    2.6860   -3.4668    0.4364 H   0  0  0  0  0  0  0  0  0  0  0  0
   -6.4043   -1.2051    0.3250 H   0  0  0  0  0  0  0  0  0  0  0  0
   -6.3283    0.5179   -0.2184 H   0  0  0  0  0  0  0  0  0  0  0  0
   -4.5397   -0.0522   -1.8612 H   0  0  0  0  0  0  0  0  0  0  0  0
   -4.6781   -1.7873   -1.3736 H   0  0  0  0  0  0  0  0  0  0  0  0
    4.4090   -0.6876   -2.0606 H   0  0  0  0  0  0  0  0  0  0  0  0
    4.2346    1.0601   -2.4340 H   0  0  0  0  0  0  0  0  0  0  0  0
  1  2  3  0
  2  3  1  0
  3  4  1  0
  4  5  1  0
  5  6  1  0
  6  7  2  0
  6  8  1  0
  8  9  1  0
  9 10  1  0
 10 11  2  0
 10 12  1  0
 12 13  2  0
 13 14  1  0
 14 15  1  0
 15 16  2  0
 16 17  1  0
 17 18  2  0
 18 19  1  0
 19 20  2  0
 18 21  1  0
 21 22  1  0
 22 23  1  0
 23 24  1  0
 24 25  1  0
 25 26  1  0
 26 27  1  0
 27 28  1  0
 28 29  1  0
 21 30  1  0
 30 31  1  0
  5 32  1  0
 32  3  1  0
 27  8  1  0
 20 12  1  0
 31 21  1  0
 20 15  1  0
 29 27  1  0
  3 33  1  0
  4 34  1  0
  4 35  1  0
  8 36  1  6
  9 37  1  0
 13 38  1  0
 14 39  1  0
 17 40  1  0
 22 41  1  0
 22 42  1  0
 23 43  1  0
 23 44  1  0
 24 45  1  0
 24 46  1  0
 25 47  1  0
 25 48  1  0
 26 49  1  0
 26 50  1  0
 28 51  1  0
 28 52  1  0
 29 53  1  0
 29 54  1  0
 30 55  1  0
 30 56  1  0
 31 57  1  0
 31 58  1  0
 32 59  1  0
 32 60  1  0
M  END
>  <candidate_id>  (25) 
CAND_423486dce5

>  <source_generator>  (25) 
v5_3_model_guided_macrocycle

>  <parent_mol_id>  (25) 
JAK2_c385760536

>  <canonical_smiles>  (25) 
N#CC1CN(C(=O)[C@@H]2NC(=O)c3c[nH]c4ncc(nc34)C3(CCCCCC24CC4)CC3)C1

>  <inchikey>  (25) 
BMQOWSQTLFWOLA-IBGZPJMESA-N

>  <valid_rdkit>  (25) 
True

>  <unique_flag>  (25) 
True

>  <novel_flag>  (25) 
True

>  <mw>  (25) 
432.528

>  <logp>  (25) 
2.8142

>  <tpsa>  (25) 
114.77

>  <hbd>  (25) 
2

>  <hba>  (25) 
5

>  <rotatable_bonds>  (25) 
1

>  <qed>  (25) 
0.7191

>  <sa_score>  (25) 
4.233

>  <murcko_scaffold>  (25) 
O=C1N[C@@H](C(=O)N2CCC2)C2(CCCCCC3(CC3)c3cnc4[nH]cc1c4n3)CC2

>  <max_ring_size>  (25) 
14

>  <has_macrocycle_12_20>  (25) 
True

>  <has_constrained_ring_8_11>  (25) 
False

>  <passes_basic_filters>  (25) 
True

>  <generation_notes>  (25) 
v5_3_model_guided_anchor_pair=18-23;anchor_scores=0.691,0.691;linker_length=5;target_ring=13;linker_prob=0.225;chemotype=alkyl

$$$$
CAND_8b6de06a0f
     RDKit          3D

 58 63  0  0  0  0  0  0  0  0999 V2000
   -0.6279    3.0752   -4.0183 N   0  0  0  0  0  0  0  0  0  0  0  0
   -1.3529    2.8877   -3.1335 C   0  0  0  0  0  0  0  0  0  0  0  0
   -2.2240    2.6467   -2.0080 C   0  0  0  0  0  0  0  0  0  0  0  0
   -1.5628    1.9054   -0.8339 C   0  0  0  0  0  0  0  0  0  0  0  0
   -2.6827    0.9939   -0.8661 N   0  0  0  0  0  0  0  0  0  0  0  0
   -3.1534   -0.0379   -0.1063 C   0  0  0  0  0  0  0  0  0  0  0  0
   -4.1781   -0.6311   -0.4596 O   0  0  0  0  0  0  0  0  0  0  0  0
   -2.4116   -0.4490    1.2011 C   0  0  2  0  0  0  0  0  0  0  0  0
   -1.1481    0.2075    1.4683 N   0  0  0  0  0  0  0  0  0  0  0  0
   -0.8929    0.9569    2.5912 C   0  0  0  0  0  0  0  0  0  0  0  0
   -1.7250    1.1843    3.4610 O   0  0  0  0  0  0  0  0  0  0  0  0
    0.4718    1.4612    2.6643 C   0  0  0  0  0  0  0  0  0  0  0  0
    1.0245    2.1795    3.7184 C   0  0  0  0  0  0  0  0  0  0  0  0
    2.3412    2.4494    3.4234 N   0  0  0  0  0  0  0  0  0  0  0  0
    2.6505    1.9272    2.1990 C   0  0  0  0  0  0  0  0  0  0  0  0
    3.8451    1.9802    1.5825 N   0  0  0  0  0  0  0  0  0  0  0  0
    3.7871    1.3586    0.3685 C   0  0  0  0  0  0  0  0  0  0  0  0
    2.6551    0.7479   -0.1993 C   0  0  0  0  0  0  0  0  0  0  0  0
    1.4795    0.7303    0.4830 N   0  0  0  0  0  0  0  0  0  0  0  0
    1.5056    1.3275    1.7009 C   0  0  0  0  0  0  0  0  0  0  0  0
    2.6413    0.0802   -1.5859 C   0  0  0  0  0  0  0  0  0  0  0  0
    1.6498   -1.0738   -1.7261 C   0  0  0  0  0  0  0  0  0  0  0  0
    2.0328   -2.3054   -0.9026 C   0  0  0  0  0  0  0  0  0  0  0  0
    0.8797   -3.1194   -0.6715 O   0  0  0  0  0  0  0  0  0  0  0  0
    0.1474   -2.7450    0.5005 C   0  0  0  0  0  0  0  0  0  0  0  0
   -1.3300   -2.5734    0.1444 C   0  0  0  0  0  0  0  0  0  0  0  0
   -2.1727   -1.9727    1.2695 C   0  0  0  0  0  0  0  0  0  0  0  0
   -2.1034   -2.6145    2.6495 C   0  0  0  0  0  0  0  0  0  0  0  0
   -3.3175   -2.8227    1.8014 C   0  0  0  0  0  0  0  0  0  0  0  0
    2.7433    1.0183   -2.7823 C   0  0  0  0  0  0  0  0  0  0  0  0
    3.8570    0.0562   -2.4950 C   0  0  0  0  0  0  0  0  0  0  0  0
   -3.1817    1.4565   -2.1510 C   0  0  0  0  0  0  0  0  0  0  0  0
   -2.7454    3.5566   -1.6793 H   0  0  0  0  0  0  0  0  0  0  0  0
   -0.6137    1.4149   -1.0647 H   0  0  0  0  0  0  0  0  0  0  0  0
   -1.4817    2.5035    0.0776 H   0  0  0  0  0  0  0  0  0  0  0  0
   -3.1075   -0.1661    2.0021 H   0  0  0  0  0  0  0  0  0  0  0  0
   -0.3957    0.0905    0.7968 H   0  0  0  0  0  0  0  0  0  0  0  0
    0.5871    2.5070    4.6533 H   0  0  0  0  0  0  0  0  0  0  0  0
    3.0007    2.9378    4.0125 H   0  0  0  0  0  0  0  0  0  0  0  0
    4.7318    1.3775   -0.1662 H   0  0  0  0  0  0  0  0  0  0  0  0
    1.5583   -1.3809   -2.7771 H   0  0  0  0  0  0  0  0  0  0  0  0
    0.6452   -0.7252   -1.4588 H   0  0  0  0  0  0  0  0  0  0  0  0
    2.5238   -2.0598    0.0452 H   0  0  0  0  0  0  0  0  0  0  0  0
    2.7476   -2.9075   -1.4755 H   0  0  0  0  0  0  0  0  0  0  0  0
    0.5537   -1.8391    0.9591 H   0  0  0  0  0  0  0  0  0  0  0  0
    0.2688   -3.5529    1.2301 H   0  0  0  0  0  0  0  0  0  0  0  0
   -1.7308   -3.5502   -0.1571 H   0  0  0  0  0  0  0  0  0  0  0  0
   -1.4101   -1.9557   -0.7576 H   0  0  0  0  0  0  0  0  0  0  0  0
   -2.2010   -1.9779    3.5238 H   0  0  0  0  0  0  0  0  0  0  0  0
   -1.4650   -3.4739    2.8167 H   0  0  0  0  0  0  0  0  0  0  0  0
   -3.4827   -3.8081    1.3796 H   0  0  0  0  0  0  0  0  0  0  0  0
   -4.2385   -2.3303    2.0950 H   0  0  0  0  0  0  0  0  0  0  0  0
    2.9242    2.0745   -2.6088 H   0  0  0  0  0  0  0  0  0  0  0  0
    2.1174    0.8311   -3.6491 H   0  0  0  0  0  0  0  0  0  0  0  0
    4.8052    0.4705   -2.1769 H   0  0  0  0  0  0  0  0  0  0  0  0
    3.9809   -0.7844   -3.1720 H   0  0  0  0  0  0  0  0  0  0  0  0
   -2.9750    0.7460   -2.9580 H   0  0  0  0  0  0  0  0  0  0  0  0
   -4.2446    1.7161   -2.1420 H   0  0  0  0  0  0  0  0  0  0  0  0
  1  2  3  0
  2  3  1  0
  3  4  1  0
  4  5  1  0
  5  6  1  0
  6  7  2  0
  6  8  1  0
  8  9  1  0
  9 10  1  0
 10 11  2  0
 10 12  1  0
 12 13  2  0
 13 14  1  0
 14 15  1  0
 15 16  2  0
 16 17  1  0
 17 18  2  0
 18 19  1  0
 19 20  2  0
 18 21  1  0
 21 22  1  0
 22 23  1  0
 23 24  1  0
 24 25  1  0
 25 26  1  0
 26 27  1  0
 27 28  1  0
 28 29  1  0
 21 30  1  0
 30 31  1  0
  5 32  1  0
 32  3  1  0
 27  8  1  0
 20 12  1  0
 31 21  1  0
 20 15  1  0
 29 27  1  0
  3 33  1  0
  4 34  1  0
  4 35  1  0
  8 36  1  1
  9 37  1  0
 13 38  1  0
 14 39  1  0
 17 40  1  0
 22 41  1  0
 22 42  1  0
 23 43  1  0
 23 44  1  0
 25 45  1  0
 25 46  1  0
 26 47  1  0
 26 48  1  0
 28 49  1  0
 28 50  1  0
 29 51  1  0
 29 52  1  0
 30 53  1  0
 30 54  1  0
 31 55  1  0
 31 56  1  0
 32 57  1  0
 32 58  1  0
M  END
>  <candidate_id>  (26) 
CAND_8b6de06a0f

>  <source_generator>  (26) 
v5_3_model_guided_macrocycle

>  <parent_mol_id>  (26) 
JAK2_c385760536

>  <canonical_smiles>  (26) 
N#CC1CN(C(=O)[C@@H]2NC(=O)c3c[nH]c4ncc(nc34)C3(CCOCCC24CC4)CC3)C1

>  <inchikey>  (26) 
WDPWVXOYSLJQGF-SFHVURJKSA-N

>  <valid_rdkit>  (26) 
True

>  <unique_flag>  (26) 
True

>  <novel_flag>  (26) 
True

>  <mw>  (26) 
434.5

>  <logp>  (26) 
1.6605

>  <tpsa>  (26) 
124.0

>  <hbd>  (26) 
2

>  <hba>  (26) 
6

>  <rotatable_bonds>  (26) 
1

>  <qed>  (26) 
0.7035

>  <sa_score>  (26) 
4.244

>  <murcko_scaffold>  (26) 
O=C1N[C@@H](C(=O)N2CCC2)C2(CCOCCC3(CC3)c3cnc4[nH]cc1c4n3)CC2

>  <max_ring_size>  (26) 
14

>  <has_macrocycle_12_20>  (26) 
True

>  <has_constrained_ring_8_11>  (26) 
False

>  <passes_basic_filters>  (26) 
True

>  <generation_notes>  (26) 
v5_3_model_guided_anchor_pair=18-23;anchor_scores=0.691,0.691;linker_length=5;target_ring=13;linker_prob=0.225;chemotype=oxa

$$$$
CAND_bfdc82a98a
     RDKit          3D

 58 63  0  0  0  0  0  0  0  0999 V2000
   -2.3891    4.7740   -2.5865 N   0  0  0  0  0  0  0  0  0  0  0  0
   -2.8414    3.7749   -2.2080 C   0  0  0  0  0  0  0  0  0  0  0  0
   -3.3992    2.5326   -1.7336 C   0  0  0  0  0  0  0  0  0  0  0  0
   -3.0560    1.2908   -2.5731 C   0  0  0  0  0  0  0  0  0  0  0  0
   -2.7108    0.6451   -1.3207 N   0  0  0  0  0  0  0  0  0  0  0  0
   -2.5766   -0.6864   -1.0386 C   0  0  0  0  0  0  0  0  0  0  0  0
   -2.8471   -1.5275   -1.8995 O   0  0  0  0  0  0  0  0  0  0  0  0
   -2.2286   -1.0769    0.4248 C   0  0  2  0  0  0  0  0  0  0  0  0
   -1.2133   -0.2146    1.0002 N   0  0  0  0  0  0  0  0  0  0  0  0
   -1.3399    0.4169    2.2133 C   0  0  0  0  0  0  0  0  0  0  0  0
   -2.3417    0.3406    2.9149 O   0  0  0  0  0  0  0  0  0  0  0  0
   -0.1766    1.2073    2.5904 C   0  0  0  0  0  0  0  0  0  0  0  0
   -0.0084    1.9081    3.7777 C   0  0  0  0  0  0  0  0  0  0  0  0
    1.2377    2.4922    3.7697 N   0  0  0  0  0  0  0  0  0  0  0  0
    1.8800    2.1798    2.6047 C   0  0  0  0  0  0  0  0  0  0  0  0
    3.1282    2.5393    2.2544 N   0  0  0  0  0  0  0  0  0  0  0  0
    3.4510    2.0252    1.0326 C   0  0  0  0  0  0  0  0  0  0  0  0
    2.6131    1.2507    0.2135 C   0  0  0  0  0  0  0  0  0  0  0  0
    1.3519    0.9452    0.6169 N   0  0  0  0  0  0  0  0  0  0  0  0
    1.0141    1.4096    1.8464 C   0  0  0  0  0  0  0  0  0  0  0  0
    3.0475    0.6510   -1.1311 C   0  0  0  0  0  0  0  0  0  0  0  0
    2.5528   -0.7794   -1.3675 C   0  0  0  0  0  0  0  0  0  0  0  0
    3.1316   -1.7701   -0.3566 C   0  0  0  0  0  0  0  0  0  0  0  0
    2.2325   -3.3580   -0.3698 S   0  0  0  0  0  0  0  0  0  0  0  0
    0.7663   -2.9026    0.6319 C   0  0  0  0  0  0  0  0  0  0  0  0
   -0.5144   -2.9428   -0.2070 C   0  0  0  0  0  0  0  0  0  0  0  0
   -1.7714   -2.5379    0.5745 C   0  0  0  0  0  0  0  0  0  0  0  0
   -2.0675   -3.2387    1.8951 C   0  0  0  0  0  0  0  0  0  0  0  0
   -2.8742   -3.5828    0.6836 C   0  0  0  0  0  0  0  0  0  0  0  0
    2.9899    1.5839   -2.3329 C   0  0  0  0  0  0  0  0  0  0  0  0
    4.3155    1.0813   -1.8465 C   0  0  0  0  0  0  0  0  0  0  0  0
   -2.6435    1.8750   -0.5638 C   0  0  0  0  0  0  0  0  0  0  0  0
   -4.4774    2.6085   -1.5349 H   0  0  0  0  0  0  0  0  0  0  0  0
   -2.1982    1.3699   -3.2485 H   0  0  0  0  0  0  0  0  0  0  0  0
   -3.9038    0.8357   -3.0921 H   0  0  0  0  0  0  0  0  0  0  0  0
   -3.1605   -0.9318    0.9872 H   0  0  0  0  0  0  0  0  0  0  0  0
   -0.3603   -0.0613    0.4675 H   0  0  0  0  0  0  0  0  0  0  0  0
   -0.6687    2.0236    4.6284 H   0  0  0  0  0  0  0  0  0  0  0  0
    1.6436    3.0512    4.5073 H   0  0  0  0  0  0  0  0  0  0  0  0
    4.4633    2.2613    0.7197 H   0  0  0  0  0  0  0  0  0  0  0  0
    2.8190   -1.1088   -2.3809 H   0  0  0  0  0  0  0  0  0  0  0  0
    1.4568   -0.7695   -1.3336 H   0  0  0  0  0  0  0  0  0  0  0  0
    3.1360   -1.3817    0.6661 H   0  0  0  0  0  0  0  0  0  0  0  0
    4.1773   -1.9738   -0.6125 H   0  0  0  0  0  0  0  0  0  0  0  0
    0.7074   -3.6318    1.4455 H   0  0  0  0  0  0  0  0  0  0  0  0
    0.9106   -1.9248    1.0965 H   0  0  0  0  0  0  0  0  0  0  0  0
   -0.6488   -3.9573   -0.6044 H   0  0  0  0  0  0  0  0  0  0  0  0
   -0.4035   -2.2911   -1.0807 H   0  0  0  0  0  0  0  0  0  0  0  0
   -2.5514   -2.6717    2.6848 H   0  0  0  0  0  0  0  0  0  0  0  0
   -1.3933   -4.0002    2.2697 H   0  0  0  0  0  0  0  0  0  0  0  0
   -2.7226   -4.5568    0.2301 H   0  0  0  0  0  0  0  0  0  0  0  0
   -3.9091   -3.2579    0.6500 H   0  0  0  0  0  0  0  0  0  0  0  0
    2.6118    1.1981   -3.2738 H   0  0  0  0  0  0  0  0  0  0  0  0
    2.7522    2.6308   -2.1731 H   0  0  0  0  0  0  0  0  0  0  0  0
    4.8340    0.3534   -2.4638 H   0  0  0  0  0  0  0  0  0  0  0  0
    4.9882    1.8070   -1.4065 H   0  0  0  0  0  0  0  0  0  0  0  0
   -3.1987    1.8580    0.3774 H   0  0  0  0  0  0  0  0  0  0  0  0
   -1.6166    2.2152   -0.3985 H   0  0  0  0  0  0  0  0  0  0  0  0
  1  2  3  0
  2  3  1  0
  3  4  1  0
  4  5  1  0
  5  6  1  0
  6  7  2  0
  6  8  1  0
  8  9  1  0
  9 10  1  0
 10 11  2  0
 10 12  1  0
 12 13  2  0
 13 14  1  0
 14 15  1  0
 15 16  2  0
 16 17  1  0
 17 18  2  0
 18 19  1  0
 19 20  2  0
 18 21  1  0
 21 22  1  0
 22 23  1  0
 23 24  1  0
 24 25  1  0
 25 26  1  0
 26 27  1  0
 27 28  1  0
 28 29  1  0
 21 30  1  0
 30 31  1  0
  5 32  1  0
 32  3  1  0
 27  8  1  0
 20 12  1  0
 31 21  1  0
 20 15  1  0
 29 27  1  0
  3 33  1  0
  4 34  1  0
  4 35  1  0
  8 36  1  1
  9 37  1  0
 13 38  1  0
 14 39  1  0
 17 40  1  0
 22 41  1  0
 22 42  1  0
 23 43  1  0
 23 44  1  0
 25 45  1  0
 25 46  1  0
 26 47  1  0
 26 48  1  0
 28 49  1  0
 28 50  1  0
 29 51  1  0
 29 52  1  0
 30 53  1  0
 30 54  1  0
 31 55  1  0
 31 56  1  0
 32 57  1  0
 32 58  1  0
M  END
>  <candidate_id>  (27) 
CAND_bfdc82a98a

>  <source_generator>  (27) 
v5_3_model_guided_macrocycle

>  <parent_mol_id>  (27) 
JAK2_c385760536

>  <canonical_smiles>  (27) 
N#CC1CN(C(=O)[C@@H]2NC(=O)c3c[nH]c4ncc(nc34)C3(CCSCCC24CC4)CC3)C1

>  <inchikey>  (27) 
UVCZPUKWYHMMSS-SFHVURJKSA-N

>  <valid_rdkit>  (27) 
True

>  <unique_flag>  (27) 
True

>  <novel_flag>  (27) 
True

>  <mw>  (27) 
450.568

>  <logp>  (27) 
2.3771

>  <tpsa>  (27) 
114.77

>  <hbd>  (27) 
2

>  <hba>  (27) 
6

>  <rotatable_bonds>  (27) 
1

>  <qed>  (27) 
0.6894

>  <sa_score>  (27) 
4.334

>  <murcko_scaffold>  (27) 
O=C1N[C@@H](C(=O)N2CCC2)C2(CCSCCC3(CC3)c3cnc4[nH]cc1c4n3)CC2

>  <max_ring_size>  (27) 
14

>  <has_macrocycle_12_20>  (27) 
True

>  <has_constrained_ring_8_11>  (27) 
False

>  <passes_basic_filters>  (27) 
True

>  <generation_notes>  (27) 
v5_3_model_guided_anchor_pair=18-23;anchor_scores=0.691,0.691;linker_length=5;target_ring=13;linker_prob=0.225;chemotype=thioether

$$$$
CAND_6cb1768675
     RDKit          3D

 59 64  0  0  0  0  0  0  0  0999 V2000
   -5.5032    2.4769    3.5812 N   0  0  0  0  0  0  0  0  0  0  0  0
   -5.1550    2.1453    2.5253 C   0  0  0  0  0  0  0  0  0  0  0  0
   -4.7095    1.7372    1.2163 C   0  0  0  0  0  0  0  0  0  0  0  0
   -3.2705    1.1924    1.1521 C   0  0  0  0  0  0  0  0  0  0  0  0
   -3.8083    0.0933    0.3832 N   0  0  0  0  0  0  0  0  0  0  0  0
   -3.2959   -0.9962   -0.2746 C   0  0  0  0  0  0  0  0  0  0  0  0
   -4.0636   -1.9119   -0.5839 O   0  0  0  0  0  0  0  0  0  0  0  0
   -1.7467   -1.1246   -0.3570 C   0  0  2  0  0  0  0  0  0  0  0  0
   -0.9729    0.0970   -0.5068 N   0  0  0  0  0  0  0  0  0  0  0  0
   -1.1713    1.0188   -1.5056 C   0  0  0  0  0  0  0  0  0  0  0  0
   -2.1659    1.0401   -2.2209 O   0  0  0  0  0  0  0  0  0  0  0  0
   -0.1025    1.9998   -1.6245 C   0  0  0  0  0  0  0  0  0  0  0  0
   -0.0710    3.0637   -2.5172 C   0  0  0  0  0  0  0  0  0  0  0  0
    1.1220    3.7292   -2.3634 N   0  0  0  0  0  0  0  0  0  0  0  0
    1.8681    3.1103   -1.4008 C   0  0  0  0  0  0  0  0  0  0  0  0
    3.1133    3.4480   -1.0193 N   0  0  0  0  0  0  0  0  0  0  0  0
    3.5733    2.5803   -0.0757 C   0  0  0  0  0  0  0  0  0  0  0  0
    2.8562    1.5072    0.4800 C   0  0  0  0  0  0  0  0  0  0  0  0
    1.5834    1.2411    0.0842 N   0  0  0  0  0  0  0  0  0  0  0  0
    1.1189    2.0553   -0.9018 C   0  0  0  0  0  0  0  0  0  0  0  0
    3.4866    0.5384    1.4805 C   0  0  0  0  0  0  0  0  0  0  0  0
    3.7023   -0.8632    0.9138 C   0  0  0  0  0  0  0  0  0  0  0  0
    2.5218   -1.8084    1.1965 C   0  0  0  0  0  0  0  0  0  0  0  0
    2.4103   -2.8409    0.1604 N   0  0  0  0  0  0  0  0  0  0  0  0
    1.4193   -2.4702   -0.8626 C   0  0  0  0  0  0  0  0  0  0  0  0
    0.0142   -3.0031   -0.5280 C   0  0  0  0  0  0  0  0  0  0  0  0
   -1.1194   -2.2433   -1.2327 C   0  0  0  0  0  0  0  0  0  0  0  0
   -0.9955   -2.0368   -2.7429 C   0  0  0  0  0  0  0  0  0  0  0  0
   -1.9503   -3.0563   -2.2252 C   0  0  0  0  0  0  0  0  0  0  0  0
    3.0918    0.6735    2.9462 C   0  0  0  0  0  0  0  0  0  0  0  0
    4.4746    1.0499    2.5215 C   0  0  0  0  0  0  0  0  0  0  0  0
   -5.1893    0.3553    0.7506 C   0  0  0  0  0  0  0  0  0  0  0  0
   -4.8896    2.5101    0.4560 H   0  0  0  0  0  0  0  0  0  0  0  0
   -2.8245    0.8626    2.0959 H   0  0  0  0  0  0  0  0  0  0  0  0
   -2.5843    1.8566    0.6257 H   0  0  0  0  0  0  0  0  0  0  0  0
   -1.5257   -1.4073    0.6830 H   0  0  0  0  0  0  0  0  0  0  0  0
   -0.1028    0.1640    0.0156 H   0  0  0  0  0  0  0  0  0  0  0  0
   -0.7934    3.3840   -3.2579 H   0  0  0  0  0  0  0  0  0  0  0  0
    1.4354    4.5307   -2.8928 H   0  0  0  0  0  0  0  0  0  0  0  0
    4.5981    2.7686    0.2324 H   0  0  0  0  0  0  0  0  0  0  0  0
    3.8761   -0.7770   -0.1674 H   0  0  0  0  0  0  0  0  0  0  0  0
    4.6192   -1.3069    1.3227 H   0  0  0  0  0  0  0  0  0  0  0  0
    2.7132   -2.3064    2.1552 H   0  0  0  0  0  0  0  0  0  0  0  0
    1.5762   -1.2696    1.3298 H   0  0  0  0  0  0  0  0  0  0  0  0
    2.1381   -3.7281    0.5838 H   0  0  0  0  0  0  0  0  0  0  0  0
    1.4178   -1.3894   -1.0386 H   0  0  0  0  0  0  0  0  0  0  0  0
    1.7408   -2.9228   -1.8080 H   0  0  0  0  0  0  0  0  0  0  0  0
   -0.0251   -4.0684   -0.7910 H   0  0  0  0  0  0  0  0  0  0  0  0
   -0.1541   -2.9743    0.5554 H   0  0  0  0  0  0  0  0  0  0  0  0
   -0.1170   -2.3978   -3.2658 H   0  0  0  0  0  0  0  0  0  0  0  0
   -1.4355   -1.1652   -3.2143 H   0  0  0  0  0  0  0  0  0  0  0  0
   -1.7087   -4.1027   -2.3821 H   0  0  0  0  0  0  0  0  0  0  0  0
   -3.0010   -2.8529   -2.3939 H   0  0  0  0  0  0  0  0  0  0  0  0
    2.9815   -0.2183    3.5527 H   0  0  0  0  0  0  0  0  0  0  0  0
    2.4096    1.4703    3.2253 H   0  0  0  0  0  0  0  0  0  0  0  0
    5.2903    0.4030    2.8283 H   0  0  0  0  0  0  0  0  0  0  0  0
    4.7306    2.1029    2.5625 H   0  0  0  0  0  0  0  0  0  0  0  0
   -5.5524   -0.3291    1.5241 H   0  0  0  0  0  0  0  0  0  0  0  0
   -5.8780    0.3655   -0.0984 H   0  0  0  0  0  0  0  0  0  0  0  0
  1  2  3  0
  2  3  1  0
  3  4  1  0
  4  5  1  0
  5  6  1  0
  6  7  2  0
  6  8  1  0
  8  9  1  0
  9 10  1  0
 10 11  2  0
 10 12  1  0
 12 13  2  0
 13 14  1  0
 14 15  1  0
 15 16  2  0
 16 17  1  0
 17 18  2  0
 18 19  1  0
 19 20  2  0
 18 21  1  0
 21 22  1  0
 22 23  1  0
 23 24  1  0
 24 25  1  0
 25 26  1  0
 26 27  1  0
 27 28  1  0
 28 29  1  0
 21 30  1  0
 30 31  1  0
  5 32  1  0
 32  3  1  0
 27  8  1  0
 20 12  1  0
 31 21  1  0
 20 15  1  0
 29 27  1  0
  3 33  1  0
  4 34  1  0
  4 35  1  0
  8 36  1  1
  9 37  1  0
 13 38  1  0
 14 39  1  0
 17 40  1  0
 22 41  1  0
 22 42  1  0
 23 43  1  0
 23 44  1  0
 24 45  1  0
 25 46  1  0
 25 47  1  0
 26 48  1  0
 26 49  1  0
 28 50  1  0
 28 51  1  0
 29 52  1  0
 29 53  1  0
 30 54  1  0
 30 55  1  0
 31 56  1  0
 31 57  1  0
 32 58  1  0
 32 59  1  0
M  END
>  <candidate_id>  (28) 
CAND_6cb1768675

>  <source_generator>  (28) 
v5_3_model_guided_macrocycle

>  <parent_mol_id>  (28) 
JAK2_c385760536

>  <canonical_smiles>  (28) 
N#CC1CN(C(=O)[C@@H]2NC(=O)c3c[nH]c4ncc(nc34)C3(CCNCCC24CC4)CC3)C1

>  <inchikey>  (28) 
IWUSFZCWAOXRAT-SFHVURJKSA-N

>  <valid_rdkit>  (28) 
True

>  <unique_flag>  (28) 
True

>  <novel_flag>  (28) 
True

>  <mw>  (28) 
433.516

>  <logp>  (28) 
1.2335

>  <tpsa>  (28) 
126.8

>  <hbd>  (28) 
3

>  <hba>  (28) 
6

>  <rotatable_bonds>  (28) 
1

>  <qed>  (28) 
0.6209

>  <sa_score>  (28) 
4.239

>  <murcko_scaffold>  (28) 
O=C1N[C@@H](C(=O)N2CCC2)C2(CCNCCC3(CC3)c3cnc4[nH]cc1c4n3)CC2

>  <max_ring_size>  (28) 
14

>  <has_macrocycle_12_20>  (28) 
True

>  <has_constrained_ring_8_11>  (28) 
False

>  <passes_basic_filters>  (28) 
True

>  <generation_notes>  (28) 
v5_3_model_guided_anchor_pair=18-23;anchor_scores=0.691,0.691;linker_length=5;target_ring=13;linker_prob=0.225;chemotype=aza

$$$$
CAND_53308bee89
     RDKit          3D

 57 62  0  0  0  0  0  0  0  0999 V2000
    8.1710    0.1770    0.4571 N   0  0  0  0  0  0  0  0  0  0  0  0
    7.0632    0.4948    0.5904 C   0  0  0  0  0  0  0  0  0  0  0  0
    5.6853    0.8880    0.7496 C   0  0  0  0  0  0  0  0  0  0  0  0
    4.8474    0.0039    1.6900 C   0  0  0  0  0  0  0  0  0  0  0  0
    3.8418    0.0036    0.6464 N   0  0  0  0  0  0  0  0  0  0  0  0
    2.5004   -0.2411    0.7224 C   0  0  0  0  0  0  0  0  0  0  0  0
    1.9657   -0.5243    1.7971 O   0  0  0  0  0  0  0  0  0  0  0  0
    1.7008   -0.0970   -0.5980 C   0  0  2  0  0  0  0  0  0  0  0  0
    0.6787    0.9129   -0.3935 N   0  0  0  0  0  0  0  0  0  0  0  0
    0.9131    2.2527   -0.2413 C   0  0  0  0  0  0  0  0  0  0  0  0
    2.0128    2.7712   -0.3992 O   0  0  0  0  0  0  0  0  0  0  0  0
   -0.2741    2.9838    0.1947 C   0  0  0  0  0  0  0  0  0  0  0  0
   -0.3395    4.3192    0.5683 C   0  0  0  0  0  0  0  0  0  0  0  0
   -1.6217    4.5930    0.9916 N   0  0  0  0  0  0  0  0  0  0  0  0
   -2.3889    3.4646    0.8987 C   0  0  0  0  0  0  0  0  0  0  0  0
   -3.6806    3.3346    1.2572 N   0  0  0  0  0  0  0  0  0  0  0  0
   -4.1200    2.0635    1.0201 C   0  0  0  0  0  0  0  0  0  0  0  0
   -3.3675    1.0169    0.4630 C   0  0  0  0  0  0  0  0  0  0  0  0
   -2.0635    1.2106    0.1401 N   0  0  0  0  0  0  0  0  0  0  0  0
   -1.5884    2.4637    0.3750 C   0  0  0  0  0  0  0  0  0  0  0  0
   -3.9507   -0.3714    0.1675 C   0  0  0  0  0  0  0  0  0  0  0  0
   -4.3795   -0.6092   -1.2843 C   0  0  0  0  0  0  0  0  0  0  0  0
   -5.4181   -0.5364   -0.2134 C   0  0  0  0  0  0  0  0  0  0  0  0
   -3.2976   -1.5158    0.9493 C   0  0  0  0  0  0  0  0  0  0  0  0
   -2.9443   -2.5911    0.0679 O   0  0  0  0  0  0  0  0  0  0  0  0
   -1.8501   -3.3757    0.5251 C   0  0  0  0  0  0  0  0  0  0  0  0
   -0.6767   -3.1855   -0.3260 N   0  0  0  0  0  0  0  0  0  0  0  0
   -0.1977   -1.8098   -0.2132 C   0  0  0  0  0  0  0  0  0  0  0  0
    1.0467   -1.4373   -1.0140 C   0  0  0  0  0  0  0  0  0  0  0  0
    1.0611   -1.7741   -2.4990 C   0  0  0  0  0  0  0  0  0  0  0  0
    1.9625   -2.5226   -1.5609 C   0  0  0  0  0  0  0  0  0  0  0  0
    4.7408    0.4600   -0.3901 C   0  0  0  0  0  0  0  0  0  0  0  0
    5.5815    1.9556    0.9896 H   0  0  0  0  0  0  0  0  0  0  0  0
    5.2293   -1.0005    1.8986 H   0  0  0  0  0  0  0  0  0  0  0  0
    4.5303    0.4873    2.6180 H   0  0  0  0  0  0  0  0  0  0  0  0
    2.3553    0.2632   -1.3973 H   0  0  0  0  0  0  0  0  0  0  0  0
   -0.2754    0.6145   -0.2264 H   0  0  0  0  0  0  0  0  0  0  0  0
    0.4262    5.0843    0.5917 H   0  0  0  0  0  0  0  0  0  0  0  0
   -1.9600    5.4777    1.3430 H   0  0  0  0  0  0  0  0  0  0  0  0
   -5.1585    1.9020    1.2954 H   0  0  0  0  0  0  0  0  0  0  0  0
   -4.1920   -1.5730   -1.7442 H   0  0  0  0  0  0  0  0  0  0  0  0
   -4.3073    0.2154   -1.9859 H   0  0  0  0  0  0  0  0  0  0  0  0
   -5.9194   -1.4613    0.0551 H   0  0  0  0  0  0  0  0  0  0  0  0
   -6.0823    0.3193   -0.2295 H   0  0  0  0  0  0  0  0  0  0  0  0
   -2.4129   -1.1478    1.4819 H   0  0  0  0  0  0  0  0  0  0  0  0
   -3.9960   -1.9028    1.6999 H   0  0  0  0  0  0  0  0  0  0  0  0
   -2.1560   -4.4235    0.4380 H   0  0  0  0  0  0  0  0  0  0  0  0
   -1.6212   -3.2092    1.5853 H   0  0  0  0  0  0  0  0  0  0  0  0
   -0.9894   -3.3371   -1.2824 H   0  0  0  0  0  0  0  0  0  0  0  0
   -0.0245   -1.5880    0.8436 H   0  0  0  0  0  0  0  0  0  0  0  0
   -0.9982   -1.1607   -0.5773 H   0  0  0  0  0  0  0  0  0  0  0  0
    0.2197   -2.3064   -2.9279 H   0  0  0  0  0  0  0  0  0  0  0  0
    1.5154   -1.0729   -3.1908 H   0  0  0  0  0  0  0  0  0  0  0  0
    1.7312   -3.5604   -1.3452 H   0  0  0  0  0  0  0  0  0  0  0  0
    3.0279   -2.3300   -1.6200 H   0  0  0  0  0  0  0  0  0  0  0  0
    4.3641    1.2879   -0.9956 H   0  0  0  0  0  0  0  0  0  0  0  0
    5.0798   -0.3563   -1.0356 H   0  0  0  0  0  0  0  0  0  0  0  0
  1  2  3  0
  2  3  1  0
  3  4  1  0
  4  5  1  0
  5  6  1  0
  6  7  2  0
  6  8  1  0
  8  9  1  0
  9 10  1  0
 10 11  2  0
 10 12  1  0
 12 13  2  0
 13 14  1  0
 14 15  1  0
 15 16  2  0
 16 17  1  0
 17 18  2  0
 18 19  1  0
 19 20  2  0
 18 21  1  0
 21 22  1  0
 22 23  1  0
 21 24  1  0
 24 25  1  0
 25 26  1  0
 26 27  1  0
 27 28  1  0
 28 29  1  0
 29 30  1  0
 30 31  1  0
  5 32  1  0
 32  3  1  0
 29  8  1  0
 20 12  1  0
 23 21  1  0
 31 29  1  0
 20 15  1  0
  3 33  1  0
  4 34  1  0
  4 35  1  0
  8 36  1  6
  9 37  1  0
 13 38  1  0
 14 39  1  0
 17 40  1  0
 22 41  1  0
 22 42  1  0
 23 43  1  0
 23 44  1  0
 24 45  1  0
 24 46  1  0
 26 47  1  0
 26 48  1  0
 27 49  1  0
 28 50  1  0
 28 51  1  0
 30 52  1  0
 30 53  1  0
 31 54  1  0
 31 55  1  0
 32 56  1  0
 32 57  1  0
M  END
>  <candidate_id>  (29) 
CAND_53308bee89

>  <source_generator>  (29) 
v5_3_model_guided_macrocycle

>  <parent_mol_id>  (29) 
JAK2_c385760536

>  <canonical_smiles>  (29) 
N#CC1CN(C(=O)[C@@H]2NC(=O)c3c[nH]c4ncc(nc34)C3(CC3)COCNCC23CC3)C1

>  <inchikey>  (29) 
RMIJTQSMDAIJLA-KRWDZBQOSA-N

>  <valid_rdkit>  (29) 
True

>  <unique_flag>  (29) 
True

>  <novel_flag>  (29) 
True

>  <mw>  (29) 
435.488

>  <logp>  (29) 
0.4274

>  <tpsa>  (29) 
136.03

>  <hbd>  (29) 
3

>  <hba>  (29) 
7

>  <rotatable_bonds>  (29) 
1

>  <qed>  (29) 
0.5908

>  <sa_score>  (29) 
4.25

>  <murcko_scaffold>  (29) 
O=C1N[C@@H](C(=O)N2CCC2)C2(CC2)CNCOCC2(CC2)c2cnc3[nH]cc1c3n2

>  <max_ring_size>  (29) 
14

>  <has_macrocycle_12_20>  (29) 
True

>  <has_constrained_ring_8_11>  (29) 
False

>  <passes_basic_filters>  (29) 
True

>  <generation_notes>  (29) 
v5_3_model_guided_anchor_pair=18-23;anchor_scores=0.691,0.691;linker_length=5;target_ring=13;linker_prob=0.225;chemotype=oxa_aza

$$$$
CAND_67e4c4c09b
     RDKit          3D

 61 66  0  0  0  0  0  0  0  0999 V2000
    2.2231    3.5824    3.1123 N   0  0  0  0  0  0  0  0  0  0  0  0
    1.9583    2.9801    2.1566 C   0  0  0  0  0  0  0  0  0  0  0  0
    1.6372    2.2107    0.9689 C   0  0  0  0  0  0  0  0  0  0  0  0
    0.1992    2.4589    0.4722 C   0  0  0  0  0  0  0  0  0  0  0  0
   -0.0442    3.9085    0.0276 C   0  0  0  0  0  0  0  0  0  0  0  0
   -1.4209    4.1308   -0.6123 C   0  0  0  0  0  0  0  0  0  0  0  0
   -2.7803    4.1332    0.6114 S   0  0  0  0  0  0  0  0  0  0  0  0
   -3.8579    2.8240   -0.0857 C   0  0  0  0  0  0  0  0  0  0  0  0
   -3.2665    1.4490    0.1904 C   0  0  0  0  0  0  0  0  0  0  0  0
   -3.9966    0.2256   -0.3579 C   0  0  0  0  0  0  0  0  0  0  0  0
   -5.4780    0.2640   -0.6978 C   0  0  0  0  0  0  0  0  0  0  0  0
   -4.4681    0.2480   -1.8063 C   0  0  0  0  0  0  0  0  0  0  0  0
   -3.3292   -1.0720    0.1114 C   0  0  0  0  0  0  0  0  0  0  0  0
   -3.9626   -1.9834    0.9678 C   0  0  0  0  0  0  0  0  0  0  0  0
   -3.3985   -3.1056    1.4939 N   0  0  0  0  0  0  0  0  0  0  0  0
   -2.1163   -3.2187    1.0988 C   0  0  0  0  0  0  0  0  0  0  0  0
   -1.2449   -4.1973    1.4832 N   0  0  0  0  0  0  0  0  0  0  0  0
   -0.0035   -3.9462    0.9462 C   0  0  0  0  0  0  0  0  0  0  0  0
   -0.0929   -2.8039    0.1573 C   0  0  0  0  0  0  0  0  0  0  0  0
   -1.4360   -2.3519    0.2532 C   0  0  0  0  0  0  0  0  0  0  0  0
   -2.0395   -1.2572   -0.2699 N   0  0  0  0  0  0  0  0  0  0  0  0
    0.9760   -2.1766   -0.5978 C   0  0  0  0  0  0  0  0  0  0  0  0
    0.8213   -1.6951   -1.7130 O   0  0  0  0  0  0  0  0  0  0  0  0
    2.1760   -2.1218    0.0747 N   0  0  0  0  0  0  0  0  0  0  0  0
    3.3653   -1.6065   -0.5788 C   0  0  2  0  0  0  0  0  0  0  0  0
    4.5530   -1.9782    0.2817 C   0  0  0  0  0  0  0  0  0  0  0  0
    5.0298   -3.4099    0.3534 C   0  0  0  0  0  0  0  0  0  0  0  0
    5.8631   -2.3764   -0.3516 C   0  0  0  0  0  0  0  0  0  0  0  0
    3.3878   -0.0841   -0.8961 C   0  0  0  0  0  0  0  0  0  0  0  0
    4.1286    0.3548   -1.7840 O   0  0  0  0  0  0  0  0  0  0  0  0
    2.7243    0.7853   -0.0766 N   0  0  0  0  0  0  0  0  0  0  0  0
    2.7342    2.2375   -0.1217 C   0  0  0  0  0  0  0  0  0  0  0  0
    1.9472    0.6949    1.1363 C   0  0  0  0  0  0  0  0  0  0  0  0
   -0.0078    1.7950   -0.3772 H   0  0  0  0  0  0  0  0  0  0  0  0
   -0.5072    2.1880    1.2664 H   0  0  0  0  0  0  0  0  0  0  0  0
    0.7135    4.1811   -0.7170 H   0  0  0  0  0  0  0  0  0  0  0  0
    0.0978    4.6002    0.8667 H   0  0  0  0  0  0  0  0  0  0  0  0
   -1.4307    5.1181   -1.0866 H   0  0  0  0  0  0  0  0  0  0  0  0
   -1.6016    3.3960   -1.4031 H   0  0  0  0  0  0  0  0  0  0  0  0
   -4.8343    2.9182    0.3996 H   0  0  0  0  0  0  0  0  0  0  0  0
   -4.0021    3.0149   -1.1525 H   0  0  0  0  0  0  0  0  0  0  0  0
   -2.2571    1.4113   -0.2294 H   0  0  0  0  0  0  0  0  0  0  0  0
   -3.1684    1.3214    1.2773 H   0  0  0  0  0  0  0  0  0  0  0  0
   -6.0837   -0.6278   -0.5747 H   0  0  0  0  0  0  0  0  0  0  0  0
   -6.0434    1.1753   -0.5434 H   0  0  0  0  0  0  0  0  0  0  0  0
   -4.3673   -0.6605   -2.3935 H   0  0  0  0  0  0  0  0  0  0  0  0
   -4.3324    1.1449   -2.3979 H   0  0  0  0  0  0  0  0  0  0  0  0
   -4.9877   -1.8127    1.2837 H   0  0  0  0  0  0  0  0  0  0  0  0
   -1.4950   -4.9623    2.0942 H   0  0  0  0  0  0  0  0  0  0  0  0
    0.8242   -4.6131    1.1498 H   0  0  0  0  0  0  0  0  0  0  0  0
    2.2538   -2.5371    0.9912 H   0  0  0  0  0  0  0  0  0  0  0  0
    3.4304   -2.1160   -1.5499 H   0  0  0  0  0  0  0  0  0  0  0  0
    4.6050   -1.3850    1.1890 H   0  0  0  0  0  0  0  0  0  0  0  0
    5.3892   -3.7820    1.3063 H   0  0  0  0  0  0  0  0  0  0  0  0
    4.5375   -4.1582   -0.2583 H   0  0  0  0  0  0  0  0  0  0  0  0
    6.7785   -2.0437    0.1256 H   0  0  0  0  0  0  0  0  0  0  0  0
    5.9255   -2.4183   -1.4341 H   0  0  0  0  0  0  0  0  0  0  0  0
    2.4420    2.6383   -1.0962 H   0  0  0  0  0  0  0  0  0  0  0  0
    3.7046    2.6537    0.1694 H   0  0  0  0  0  0  0  0  0  0  0  0
    1.0702    0.0471    1.0814 H   0  0  0  0  0  0  0  0  0  0  0  0
    2.5580    0.4101    1.9996 H   0  0  0  0  0  0  0  0  0  0  0  0
  1  2  3  0
  2  3  1  0
  3  4  1  0
  4  5  1  0
  5  6  1  0
  6  7  1  0
  7  8  1  0
  8  9  1  0
  9 10  1  0
 10 11  1  0
 11 12  1  0
 10 13  1  0
 13 14  2  0
 14 15  1  0
 15 16  2  0
 16 17  1  0
 17 18  1  0
 18 19  2  0
 19 20  1  0
 20 21  2  0
 19 22  1  0
 22 23  2  0
 22 24  1  0
 24 25  1  0
 25 26  1  0
 26 27  1  0
 27 28  1  0
 25 29  1  0
 29 30  2  0
 29 31  1  0
 31 32  1  0
 31 33  1  0
 32  3  1  0
 33  3  1  0
 12 10  1  0
 21 13  1  0
 28 26  1  0
 20 16  1  0
  4 34  1  0
  4 35  1  0
  5 36  1  0
  5 37  1  0
  6 38  1  0
  6 39  1  0
  8 40  1  0
  8 41  1  0
  9 42  1  0
  9 43  1  0
 11 44  1  0
 11 45  1  0
 12 46  1  0
 12 47  1  0
 14 48  1  0
 17 49  1  0
 18 50  1  0
 24 51  1  0
 25 52  1  6
 26 53  1  0
 27 54  1  0
 27 55  1  0
 28 56  1  0
 28 57  1  0
 32 58  1  0
 32 59  1  0
 33 60  1  0
 33 61  1  0
M  END
>  <candidate_id>  (30) 
CAND_67e4c4c09b

>  <source_generator>  (30) 
v5_3_model_guided_macrocycle

>  <parent_mol_id>  (30) 
JAK2_c385760536

>  <canonical_smiles>  (30) 
N#CC12CCCSCCC3(CC3)c3cnc4[nH]cc(c4n3)C(=O)N[C@H](C3CC3)C(=O)N(C1)C2

>  <inchikey>  (30) 
BVIHMRVZUSIGAB-GOSISDBHSA-N

>  <valid_rdkit>  (30) 
True

>  <unique_flag>  (30) 
True

>  <novel_flag>  (30) 
True

>  <mw>  (30) 
464.595

>  <logp>  (30) 
2.7672

>  <tpsa>  (30) 
114.77

>  <hbd>  (30) 
2

>  <hba>  (30) 
6

>  <rotatable_bonds>  (30) 
1

>  <qed>  (30) 
0.6707

>  <sa_score>  (30) 
4.412

>  <murcko_scaffold>  (30) 
O=C1N[C@H](C2CC2)C(=O)N2CC(CCCSCCC3(CC3)c3cnc4[nH]cc1c4n3)C2

>  <max_ring_size>  (30) 
18

>  <has_macrocycle_12_20>  (30) 
True

>  <has_constrained_ring_8_11>  (30) 
False

>  <passes_basic_filters>  (30) 
True

>  <generation_notes>  (30) 
v5_3_model_guided_anchor_pair=2-18;anchor_scores=0.691,0.691;linker_length=6;target_ring=17;linker_prob=0.209;chemotype=thioether

$$$$
CAND_b7ff913a58
     RDKit          3D

 63 68  0  0  0  0  0  0  0  0999 V2000
    2.7087    6.1406   -1.2254 N   0  0  0  0  0  0  0  0  0  0  0  0
    2.3080    5.1011   -0.9020 C   0  0  0  0  0  0  0  0  0  0  0  0
    1.8126    3.7995   -0.4913 C   0  0  0  0  0  0  0  0  0  0  0  0
    0.9740    3.9050    0.8092 C   0  0  0  0  0  0  0  0  0  0  0  0
   -0.5458    3.8994    0.5842 C   0  0  0  0  0  0  0  0  0  0  0  0
   -1.1227    2.4920    0.7925 C   0  0  0  0  0  0  0  0  0  0  0  0
   -2.5981    2.3752    0.3998 C   0  0  0  0  0  0  0  0  0  0  0  0
   -3.2166    1.0219    0.7988 C   0  0  0  0  0  0  0  0  0  0  0  0
   -2.5757   -0.1728    0.0835 C   0  0  0  0  0  0  0  0  0  0  0  0
   -2.9816   -1.5817    0.5365 C   0  0  0  0  0  0  0  0  0  0  0  0
   -4.3233   -1.8302    1.2082 C   0  0  0  0  0  0  0  0  0  0  0  0
   -3.0714   -1.8716    2.0321 C   0  0  0  0  0  0  0  0  0  0  0  0
   -2.2928   -2.6761   -0.2979 C   0  0  0  0  0  0  0  0  0  0  0  0
   -2.9915   -3.6699   -1.0009 C   0  0  0  0  0  0  0  0  0  0  0  0
   -2.4366   -4.6460   -1.7777 N   0  0  0  0  0  0  0  0  0  0  0  0
   -1.0989   -4.4972   -1.8366 C   0  0  0  0  0  0  0  0  0  0  0  0
   -0.2249   -5.2525   -2.5677 N   0  0  0  0  0  0  0  0  0  0  0  0
    1.0458   -4.7379   -2.4447 C   0  0  0  0  0  0  0  0  0  0  0  0
    0.9965   -3.6373   -1.5988 C   0  0  0  0  0  0  0  0  0  0  0  0
   -0.3590   -3.5237   -1.1846 C   0  0  0  0  0  0  0  0  0  0  0  0
   -0.9380   -2.6146   -0.3580 N   0  0  0  0  0  0  0  0  0  0  0  0
    2.1002   -2.7375   -1.2809 C   0  0  0  0  0  0  0  0  0  0  0  0
    3.2089   -2.8329   -1.7964 O   0  0  0  0  0  0  0  0  0  0  0  0
    1.7649   -1.7519   -0.3878 N   0  0  0  0  0  0  0  0  0  0  0  0
    2.4850   -0.4948   -0.2699 C   0  0  2  0  0  0  0  0  0  0  0  0
    2.5350   -0.1585    1.2018 C   0  0  0  0  0  0  0  0  0  0  0  0
    3.8424    0.1747    1.8864 C   0  0  0  0  0  0  0  0  0  0  0  0
    3.1709   -1.1331    2.1721 C   0  0  0  0  0  0  0  0  0  0  0  0
    1.6736    0.5216   -1.1204 C   0  0  0  0  0  0  0  0  0  0  0  0
    0.7320    0.1680   -1.8409 O   0  0  0  0  0  0  0  0  0  0  0  0
    2.0042    1.8424   -1.0770 N   0  0  0  0  0  0  0  0  0  0  0  0
    1.2981    2.9518   -1.6955 C   0  0  0  0  0  0  0  0  0  0  0  0
    2.9325    2.7050   -0.3817 C   0  0  0  0  0  0  0  0  0  0  0  0
    1.2357    3.0971    1.5047 H   0  0  0  0  0  0  0  0  0  0  0  0
    1.2419    4.8279    1.3420 H   0  0  0  0  0  0  0  0  0  0  0  0
   -0.8073    4.2968   -0.4021 H   0  0  0  0  0  0  0  0  0  0  0  0
   -1.0122    4.5631    1.3232 H   0  0  0  0  0  0  0  0  0  0  0  0
   -1.0041    2.2134    1.8473 H   0  0  0  0  0  0  0  0  0  0  0  0
   -0.5377    1.7770    0.2116 H   0  0  0  0  0  0  0  0  0  0  0  0
   -2.7057    2.5261   -0.6809 H   0  0  0  0  0  0  0  0  0  0  0  0
   -3.1676    3.1724    0.8927 H   0  0  0  0  0  0  0  0  0  0  0  0
   -3.1353    0.9164    1.8853 H   0  0  0  0  0  0  0  0  0  0  0  0
   -4.2872    1.0508    0.5646 H   0  0  0  0  0  0  0  0  0  0  0  0
   -1.4889   -0.1123    0.2000 H   0  0  0  0  0  0  0  0  0  0  0  0
   -2.7833   -0.0819   -0.9907 H   0  0  0  0  0  0  0  0  0  0  0  0
   -4.8434   -2.7697    1.0580 H   0  0  0  0  0  0  0  0  0  0  0  0
   -5.0041   -1.0017    1.3653 H   0  0  0  0  0  0  0  0  0  0  0  0
   -2.7327   -2.8387    2.3923 H   0  0  0  0  0  0  0  0  0  0  0  0
   -2.8922   -1.0759    2.7438 H   0  0  0  0  0  0  0  0  0  0  0  0
   -4.0760   -3.7064   -0.9608 H   0  0  0  0  0  0  0  0  0  0  0  0
   -0.5012   -6.0327   -3.1463 H   0  0  0  0  0  0  0  0  0  0  0  0
    1.8748   -5.1699   -2.9909 H   0  0  0  0  0  0  0  0  0  0  0  0
    0.7998   -1.7469   -0.0631 H   0  0  0  0  0  0  0  0  0  0  0  0
    3.4846   -0.5848   -0.7086 H   0  0  0  0  0  0  0  0  0  0  0  0
    1.6281    0.3282    1.5458 H   0  0  0  0  0  0  0  0  0  0  0  0
    3.8344    0.9235    2.6707 H   0  0  0  0  0  0  0  0  0  0  0  0
    4.7605    0.1487    1.3095 H   0  0  0  0  0  0  0  0  0  0  0  0
    3.6292   -2.0350    1.7791 H   0  0  0  0  0  0  0  0  0  0  0  0
    2.6973   -1.2672    3.1381 H   0  0  0  0  0  0  0  0  0  0  0  0
    1.7102    3.1978   -2.6815 H   0  0  0  0  0  0  0  0  0  0  0  0
    0.2195    2.8150   -1.7900 H   0  0  0  0  0  0  0  0  0  0  0  0
    3.8472    2.8779   -0.9598 H   0  0  0  0  0  0  0  0  0  0  0  0
    3.1993    2.4128    0.6323 H   0  0  0  0  0  0  0  0  0  0  0  0
  1  2  3  0
  2  3  1  0
  3  4  1  0
  4  5  1  0
  5  6  1  0
  6  7  1  0
  7  8  1  0
  8  9  1  0
  9 10  1  0
 10 11  1  0
 11 12  1  0
 10 13  1  0
 13 14  2  0
 14 15  1  0
 15 16  2  0
 16 17  1  0
 17 18  1  0
 18 19  2  0
 19 20  1  0
 20 21  2  0
 19 22  1  0
 22 23  2  0
 22 24  1  0
 24 25  1  0
 25 26  1  0
 26 27  1  0
 27 28  1  0
 25 29  1  0
 29 30  2  0
 29 31  1  0
 31 32  1  0
 31 33  1  0
 32  3  1  0
 33  3  1  0
 12 10  1  0
 21 13  1  0
 28 26  1  0
 20 16  1  0
  4 34  1  0
  4 35  1  0
  5 36  1  0
  5 37  1  0
  6 38  1  0
  6 39  1  0
  7 40  1  0
  7 41  1  0
  8 42  1  0
  8 43  1  0
  9 44  1  0
  9 45  1  0
 11 46  1  0
 11 47  1  0
 12 48  1  0
 12 49  1  0
 14 50  1  0
 17 51  1  0
 18 52  1  0
 24 53  1  0
 25 54  1  6
 26 55  1  0
 27 56  1  0
 27 57  1  0
 28 58  1  0
 28 59  1  0
 32 60  1  0
 32 61  1  0
 33 62  1  0
 33 63  1  0
M  END
>  <candidate_id>  (31) 
CAND_b7ff913a58

>  <source_generator>  (31) 
v5_3_model_guided_macrocycle

>  <parent_mol_id>  (31) 
JAK2_c385760536

>  <canonical_smiles>  (31) 
N#CC12CCCCCCC3(CC3)c3cnc4[nH]cc(c4n3)C(=O)N[C@H](C3CC3)C(=O)N(C1)C2

>  <inchikey>  (31) 
JSANKVNBIUHLQY-LJQANCHMSA-N

>  <valid_rdkit>  (31) 
True

>  <unique_flag>  (31) 
True

>  <novel_flag>  (31) 
True

>  <mw>  (31) 
446.555

>  <logp>  (31) 
3.2043

>  <tpsa>  (31) 
114.77

>  <hbd>  (31) 
2

>  <hba>  (31) 
5

>  <rotatable_bonds>  (31) 
1

>  <qed>  (31) 
0.698

>  <sa_score>  (31) 
4.311

>  <murcko_scaffold>  (31) 
O=C1N[C@H](C2CC2)C(=O)N2CC(CCCCCCC3(CC3)c3cnc4[nH]cc1c4n3)C2

>  <max_ring_size>  (31) 
18

>  <has_macrocycle_12_20>  (31) 
True

>  <has_constrained_ring_8_11>  (31) 
False

>  <passes_basic_filters>  (31) 
True

>  <generation_notes>  (31) 
v5_3_model_guided_anchor_pair=2-18;anchor_scores=0.691,0.691;linker_length=6;target_ring=17;linker_prob=0.209;chemotype=alkyl

$$$$
CAND_e16585ad8a
     RDKit          3D

 62 67  0  0  0  0  0  0  0  0999 V2000
    2.5479    4.6250    2.3862 N   0  0  0  0  0  0  0  0  0  0  0  0
    2.0077    3.9754    1.5911 C   0  0  0  0  0  0  0  0  0  0  0  0
    1.3239    3.1557    0.5954 C   0  0  0  0  0  0  0  0  0  0  0  0
   -0.1841    3.4550    0.6515 C   0  0  0  0  0  0  0  0  0  0  0  0
   -1.0305    2.7328   -0.4056 C   0  0  0  0  0  0  0  0  0  0  0  0
   -2.5267    3.0254   -0.2401 C   0  0  0  0  0  0  0  0  0  0  0  0
   -3.0145    2.4981    1.0351 N   0  0  0  0  0  0  0  0  0  0  0  0
   -3.9984    1.4206    0.8910 C   0  0  0  0  0  0  0  0  0  0  0  0
   -3.5146    0.1386    0.1989 C   0  0  0  0  0  0  0  0  0  0  0  0
   -2.5617   -0.7982    0.9423 C   0  0  0  0  0  0  0  0  0  0  0  0
   -1.6453   -0.3002    2.0513 C   0  0  0  0  0  0  0  0  0  0  0  0
   -2.8349   -1.1415    2.4032 C   0  0  0  0  0  0  0  0  0  0  0  0
   -2.0512   -1.9373    0.0504 C   0  0  0  0  0  0  0  0  0  0  0  0
   -2.8929   -3.0238   -0.2447 C   0  0  0  0  0  0  0  0  0  0  0  0
   -2.5888   -4.0694   -1.0525 N   0  0  0  0  0  0  0  0  0  0  0  0
   -1.3441   -3.9350   -1.5439 C   0  0  0  0  0  0  0  0  0  0  0  0
   -0.7308   -4.8116   -2.3904 N   0  0  0  0  0  0  0  0  0  0  0  0
    0.5335   -4.3650   -2.6691 C   0  0  0  0  0  0  0  0  0  0  0  0
    0.7456   -3.1698   -1.9895 C   0  0  0  0  0  0  0  0  0  0  0  0
   -0.4581   -2.8942   -1.2830 C   0  0  0  0  0  0  0  0  0  0  0  0
   -0.7932   -1.8518   -0.4685 N   0  0  0  0  0  0  0  0  0  0  0  0
    1.9939   -2.4239   -2.0268 C   0  0  0  0  0  0  0  0  0  0  0  0
    2.9597   -2.8169   -2.6733 O   0  0  0  0  0  0  0  0  0  0  0  0
    2.0128   -1.2852   -1.2594 N   0  0  0  0  0  0  0  0  0  0  0  0
    3.2147   -0.4860   -1.1079 C   0  0  2  0  0  0  0  0  0  0  0  0
    3.8340   -0.6450    0.2657 C   0  0  0  0  0  0  0  0  0  0  0  0
    3.1519   -1.3177    1.4414 C   0  0  0  0  0  0  0  0  0  0  0  0
    4.2793   -2.0130    0.7362 C   0  0  0  0  0  0  0  0  0  0  0  0
    2.9396    0.9749   -1.5251 C   0  0  0  0  0  0  0  0  0  0  0  0
    3.2479    1.3890   -2.6465 O   0  0  0  0  0  0  0  0  0  0  0  0
    2.2883    1.7960   -0.6484 N   0  0  0  0  0  0  0  0  0  0  0  0
    2.0194    3.2159   -0.7866 C   0  0  0  0  0  0  0  0  0  0  0  0
    1.7471    1.6637    0.6836 C   0  0  0  0  0  0  0  0  0  0  0  0
   -0.5516    3.1950    1.6526 H   0  0  0  0  0  0  0  0  0  0  0  0
   -0.3446    4.5355    0.5310 H   0  0  0  0  0  0  0  0  0  0  0  0
   -0.7350    3.0629   -1.4070 H   0  0  0  0  0  0  0  0  0  0  0  0
   -0.8594    1.6519   -0.3730 H   0  0  0  0  0  0  0  0  0  0  0  0
   -3.0841    2.6345   -1.0990 H   0  0  0  0  0  0  0  0  0  0  0  0
   -2.6818    4.1114   -0.2552 H   0  0  0  0  0  0  0  0  0  0  0  0
   -3.4553    3.2588    1.5556 H   0  0  0  0  0  0  0  0  0  0  0  0
   -4.3808    1.1794    1.8882 H   0  0  0  0  0  0  0  0  0  0  0  0
   -4.8580    1.8129    0.3320 H   0  0  0  0  0  0  0  0  0  0  0  0
   -4.4149   -0.4459   -0.0369 H   0  0  0  0  0  0  0  0  0  0  0  0
   -3.0692    0.3890   -0.7717 H   0  0  0  0  0  0  0  0  0  0  0  0
   -0.6625   -0.7502    2.1504 H   0  0  0  0  0  0  0  0  0  0  0  0
   -1.6618    0.7410    2.3446 H   0  0  0  0  0  0  0  0  0  0  0  0
   -2.6403   -2.1497    2.7559 H   0  0  0  0  0  0  0  0  0  0  0  0
   -3.6560   -0.6635    2.9234 H   0  0  0  0  0  0  0  0  0  0  0  0
   -3.8908   -3.0670    0.1842 H   0  0  0  0  0  0  0  0  0  0  0  0
   -1.1605   -5.6573   -2.7378 H   0  0  0  0  0  0  0  0  0  0  0  0
    1.1920   -4.9277   -3.3195 H   0  0  0  0  0  0  0  0  0  0  0  0
    1.1643   -1.0186   -0.7694 H   0  0  0  0  0  0  0  0  0  0  0  0
    3.9715   -0.8409   -1.8197 H   0  0  0  0  0  0  0  0  0  0  0  0
    4.5352    0.1596    0.4711 H   0  0  0  0  0  0  0  0  0  0  0  0
    2.1590   -1.7370    1.3284 H   0  0  0  0  0  0  0  0  0  0  0  0
    3.3472   -0.9255    2.4340 H   0  0  0  0  0  0  0  0  0  0  0  0
    4.0449   -2.8785    0.1257 H   0  0  0  0  0  0  0  0  0  0  0  0
    5.2334   -2.0872    1.2466 H   0  0  0  0  0  0  0  0  0  0  0  0
    2.9401    3.8076   -0.8433 H   0  0  0  0  0  0  0  0  0  0  0  0
    1.3952    3.4561   -1.6501 H   0  0  0  0  0  0  0  0  0  0  0  0
    2.5052    1.4426    1.4405 H   0  0  0  0  0  0  0  0  0  0  0  0
    0.9411    0.9301    0.7564 H   0  0  0  0  0  0  0  0  0  0  0  0
  1  2  3  0
  2  3  1  0
  3  4  1  0
  4  5  1  0
  5  6  1  0
  6  7  1  0
  7  8  1  0
  8  9  1  0
  9 10  1  0
 10 11  1  0
 11 12  1  0
 10 13  1  0
 13 14  2  0
 14 15  1  0
 15 16  2  0
 16 17  1  0
 17 18  1  0
 18 19  2  0
 19 20  1  0
 20 21  2  0
 19 22  1  0
 22 23  2  0
 22 24  1  0
 24 25  1  0
 25 26  1  0
 26 27  1  0
 27 28  1  0
 25 29  1  0
 29 30  2  0
 29 31  1  0
 31 32  1  0
 31 33  1  0
 32  3  1  0
 33  3  1  0
 12 10  1  0
 21 13  1  0
 28 26  1  0
 20 16  1  0
  4 34  1  0
  4 35  1  0
  5 36  1  0
  5 37  1  0
  6 38  1  0
  6 39  1  0
  7 40  1  0
  8 41  1  0
  8 42  1  0
  9 43  1  0
  9 44  1  0
 11 45  1  0
 11 46  1  0
 12 47  1  0
 12 48  1  0
 14 49  1  0
 17 50  1  0
 18 51  1  0
 24 52  1  0
 25 53  1  6
 26 54  1  0
 27 55  1  0
 27 56  1  0
 28 57  1  0
 28 58  1  0
 32 59  1  0
 32 60  1  0
 33 61  1  0
 33 62  1  0
M  END
>  <candidate_id>  (32) 
CAND_e16585ad8a

>  <source_generator>  (32) 
v5_3_model_guided_macrocycle

>  <parent_mol_id>  (32) 
JAK2_c385760536

>  <canonical_smiles>  (32) 
N#CC12CCCNCCC3(CC3)c3cnc4[nH]cc(c4n3)C(=O)N[C@H](C3CC3)C(=O)N(C1)C2

>  <inchikey>  (32) 
YXVBVFPWDMRIHX-GOSISDBHSA-N

>  <valid_rdkit>  (32) 
True

>  <unique_flag>  (32) 
True

>  <novel_flag>  (32) 
True

>  <mw>  (32) 
447.543

>  <logp>  (32) 
1.6236

>  <tpsa>  (32) 
126.8

>  <hbd>  (32) 
3

>  <hba>  (32) 
6

>  <rotatable_bonds>  (32) 
1

>  <qed>  (32) 
0.6098

>  <sa_score>  (32) 
4.317

>  <murcko_scaffold>  (32) 
O=C1N[C@H](C2CC2)C(=O)N2CC(CCCNCCC3(CC3)c3cnc4[nH]cc1c4n3)C2

>  <max_ring_size>  (32) 
18

>  <has_macrocycle_12_20>  (32) 
True

>  <has_constrained_ring_8_11>  (32) 
False

>  <passes_basic_filters>  (32) 
True

>  <generation_notes>  (32) 
v5_3_model_guided_anchor_pair=2-18;anchor_scores=0.691,0.691;linker_length=6;target_ring=17;linker_prob=0.209;chemotype=aza

$$$$
CAND_4791e858cc
     RDKit          3D

 61 66  0  0  0  0  0  0  0  0999 V2000
    3.8943    3.7896   -2.9498 N   0  0  0  0  0  0  0  0  0  0  0  0
    3.1765    3.0789   -2.3793 C   0  0  0  0  0  0  0  0  0  0  0  0
    2.2754    2.1927   -1.6632 C   0  0  0  0  0  0  0  0  0  0  0  0
    0.9101    2.0464   -2.3696 C   0  0  0  0  0  0  0  0  0  0  0  0
    0.1289    3.3590   -2.5417 C   0  0  0  0  0  0  0  0  0  0  0  0
   -0.7316    3.7994   -1.3563 C   0  0  0  0  0  0  0  0  0  0  0  0
   -1.8653    2.9538   -1.1955 O   0  0  0  0  0  0  0  0  0  0  0  0
   -1.8184    2.1144   -0.0411 C   0  0  0  0  0  0  0  0  0  0  0  0
   -3.2135    1.5207    0.1682 C   0  0  0  0  0  0  0  0  0  0  0  0
   -3.2057    0.2686    1.0281 C   0  0  0  0  0  0  0  0  0  0  0  0
   -2.6987    0.3866    2.4580 C   0  0  0  0  0  0  0  0  0  0  0  0
   -4.1636    0.2034    2.2111 C   0  0  0  0  0  0  0  0  0  0  0  0
   -2.9186   -1.0188    0.2616 C   0  0  0  0  0  0  0  0  0  0  0  0
   -3.9566   -1.7415   -0.3509 C   0  0  0  0  0  0  0  0  0  0  0  0
   -3.8142   -2.8783   -1.0842 N   0  0  0  0  0  0  0  0  0  0  0  0
   -2.5166   -3.2252   -1.1631 C   0  0  0  0  0  0  0  0  0  0  0  0
   -2.0111   -4.2979   -1.8405 N   0  0  0  0  0  0  0  0  0  0  0  0
   -0.6429   -4.3136   -1.7204 C   0  0  0  0  0  0  0  0  0  0  0  0
   -0.2560   -3.2379   -0.9308 C   0  0  0  0  0  0  0  0  0  0  0  0
   -1.4505   -2.5521   -0.5817 C   0  0  0  0  0  0  0  0  0  0  0  0
   -1.6261   -1.4243    0.1595 N   0  0  0  0  0  0  0  0  0  0  0  0
    1.1124   -2.8955   -0.5787 C   0  0  0  0  0  0  0  0  0  0  0  0
    2.0848   -3.4416   -1.0898 O   0  0  0  0  0  0  0  0  0  0  0  0
    1.2190   -1.8991    0.3553 N   0  0  0  0  0  0  0  0  0  0  0  0
    2.4884   -1.3494    0.7896 C   0  0  2  0  0  0  0  0  0  0  0  0
    3.0016   -2.1715    1.9453 C   0  0  0  0  0  0  0  0  0  0  0  0
    3.7544   -1.5813    3.1125 C   0  0  0  0  0  0  0  0  0  0  0  0
    2.3756   -2.1512    3.3187 C   0  0  0  0  0  0  0  0  0  0  0  0
    2.2216    0.1480    1.0398 C   0  0  0  0  0  0  0  0  0  0  0  0
    1.6612    0.5820    2.0486 O   0  0  0  0  0  0  0  0  0  0  0  0
    2.5108    0.9870   -0.0018 N   0  0  0  0  0  0  0  0  0  0  0  0
    2.2819    2.4108   -0.1257 C   0  0  0  0  0  0  0  0  0  0  0  0
    2.9263    0.8024   -1.3737 C   0  0  0  0  0  0  0  0  0  0  0  0
    1.0938    1.6410   -3.3752 H   0  0  0  0  0  0  0  0  0  0  0  0
    0.2908    1.2972   -1.8674 H   0  0  0  0  0  0  0  0  0  0  0  0
    0.8063    4.1779   -2.8061 H   0  0  0  0  0  0  0  0  0  0  0  0
   -0.5454    3.2190   -3.3974 H   0  0  0  0  0  0  0  0  0  0  0  0
   -1.1317    4.7929   -1.5902 H   0  0  0  0  0  0  0  0  0  0  0  0
   -0.1598    3.9145   -0.4341 H   0  0  0  0  0  0  0  0  0  0  0  0
   -1.5329    2.6972    0.8427 H   0  0  0  0  0  0  0  0  0  0  0  0
   -1.0733    1.3303   -0.1942 H   0  0  0  0  0  0  0  0  0  0  0  0
   -3.8572    2.2932    0.6097 H   0  0  0  0  0  0  0  0  0  0  0  0
   -3.6730    1.2957   -0.8032 H   0  0  0  0  0  0  0  0  0  0  0  0
   -2.1423   -0.4453    2.8787 H   0  0  0  0  0  0  0  0  0  0  0  0
   -2.3656    1.3518    2.8238 H   0  0  0  0  0  0  0  0  0  0  0  0
   -4.5974   -0.7498    2.4948 H   0  0  0  0  0  0  0  0  0  0  0  0
   -4.8177    1.0473    2.4040 H   0  0  0  0  0  0  0  0  0  0  0  0
   -4.9825   -1.3927   -0.2625 H   0  0  0  0  0  0  0  0  0  0  0  0
   -2.5766   -4.9559   -2.3578 H   0  0  0  0  0  0  0  0  0  0  0  0
   -0.0514   -5.0828   -2.2017 H   0  0  0  0  0  0  0  0  0  0  0  0
    0.3659   -1.5097    0.7550 H   0  0  0  0  0  0  0  0  0  0  0  0
    3.2172   -1.4499   -0.0225 H   0  0  0  0  0  0  0  0  0  0  0  0
    3.3396   -3.1430    1.5892 H   0  0  0  0  0  0  0  0  0  0  0  0
    4.5941   -2.1416    3.5095 H   0  0  0  0  0  0  0  0  0  0  0  0
    3.8696   -0.5069    3.1974 H   0  0  0  0  0  0  0  0  0  0  0  0
    2.2885   -3.0950    3.8472 H   0  0  0  0  0  0  0  0  0  0  0  0
    1.5644   -1.4631    3.5243 H   0  0  0  0  0  0  0  0  0  0  0  0
    3.1142    2.9962    0.2806 H   0  0  0  0  0  0  0  0  0  0  0  0
    1.3515    2.7333    0.3405 H   0  0  0  0  0  0  0  0  0  0  0  0
    4.0154    0.7357   -1.4677 H   0  0  0  0  0  0  0  0  0  0  0  0
    2.4617   -0.0518   -1.8756 H   0  0  0  0  0  0  0  0  0  0  0  0
  1  2  3  0
  2  3  1  0
  3  4  1  0
  4  5  1  0
  5  6  1  0
  6  7  1  0
  7  8  1  0
  8  9  1  0
  9 10  1  0
 10 11  1  0
 11 12  1  0
 10 13  1  0
 13 14  2  0
 14 15  1  0
 15 16  2  0
 16 17  1  0
 17 18  1  0
 18 19  2  0
 19 20  1  0
 20 21  2  0
 19 22  1  0
 22 23  2  0
 22 24  1  0
 24 25  1  0
 25 26  1  0
 26 27  1  0
 27 28  1  0
 25 29  1  0
 29 30  2  0
 29 31  1  0
 31 32  1  0
 31 33  1  0
 32  3  1  0
 33  3  1  0
 12 10  1  0
 21 13  1  0
 28 26  1  0
 20 16  1  0
  4 34  1  0
  4 35  1  0
  5 36  1  0
  5 37  1  0
  6 38  1  0
  6 39  1  0
  8 40  1  0
  8 41  1  0
  9 42  1  0
  9 43  1  0
 11 44  1  0
 11 45  1  0
 12 46  1  0
 12 47  1  0
 14 48  1  0
 17 49  1  0
 18 50  1  0
 24 51  1  0
 25 52  1  6
 26 53  1  0
 27 54  1  0
 27 55  1  0
 28 56  1  0
 28 57  1  0
 32 58  1  0
 32 59  1  0
 33 60  1  0
 33 61  1  0
M  END
>  <candidate_id>  (33) 
CAND_4791e858cc

>  <source_generator>  (33) 
v5_3_model_guided_macrocycle

>  <parent_mol_id>  (33) 
JAK2_c385760536

>  <canonical_smiles>  (33) 
N#CC12CCCOCCC3(CC3)c3cnc4[nH]cc(c4n3)C(=O)N[C@H](C3CC3)C(=O)N(C1)C2

>  <inchikey>  (33) 
UCMKEZGQMVNLBU-GOSISDBHSA-N

>  <valid_rdkit>  (33) 
True

>  <unique_flag>  (33) 
True

>  <novel_flag>  (33) 
True

>  <mw>  (33) 
448.527

>  <logp>  (33) 
2.0506

>  <tpsa>  (33) 
124.0

>  <hbd>  (33) 
2

>  <hba>  (33) 
6

>  <rotatable_bonds>  (33) 
1

>  <qed>  (33) 
0.6881

>  <sa_score>  (33) 
4.322

>  <murcko_scaffold>  (33) 
O=C1N[C@H](C2CC2)C(=O)N2CC(CCCOCCC3(CC3)c3cnc4[nH]cc1c4n3)C2

>  <max_ring_size>  (33) 
18

>  <has_macrocycle_12_20>  (33) 
True

>  <has_constrained_ring_8_11>  (33) 
False

>  <passes_basic_filters>  (33) 
True

>  <generation_notes>  (33) 
v5_3_model_guided_anchor_pair=2-18;anchor_scores=0.691,0.691;linker_length=6;target_ring=17;linker_prob=0.209;chemotype=oxa

$$$$
CAND_0e55be250e
     RDKit          3D

 60 65  0  0  0  0  0  0  0  0999 V2000
   -4.3834   -5.1544   -1.3532 N   0  0  0  0  0  0  0  0  0  0  0  0
   -3.6665   -4.2434   -1.3119 C   0  0  0  0  0  0  0  0  0  0  0  0
   -2.7781   -3.0963   -1.2486 C   0  0  0  0  0  0  0  0  0  0  0  0
   -1.3110   -3.5615   -1.1147 C   0  0  0  0  0  0  0  0  0  0  0  0
   -0.2948   -2.4213   -1.1398 C   0  0  0  0  0  0  0  0  0  0  0  0
    0.9962   -2.9164   -0.7942 O   0  0  0  0  0  0  0  0  0  0  0  0
    1.9665   -1.8757   -0.8807 C   0  0  0  0  0  0  0  0  0  0  0  0
    3.1034   -2.2451   -0.0695 N   0  0  0  0  0  0  0  0  0  0  0  0
    3.9965   -1.1245    0.2017 C   0  0  0  0  0  0  0  0  0  0  0  0
    3.4253   -0.0432    1.1175 C   0  0  0  0  0  0  0  0  0  0  0  0
    2.5834   -0.4349    2.3341 C   0  0  0  0  0  0  0  0  0  0  0  0
    3.9853    0.0352    2.5388 C   0  0  0  0  0  0  0  0  0  0  0  0
    3.1106    1.2900    0.4279 C   0  0  0  0  0  0  0  0  0  0  0  0
    4.1498    2.1683    0.0783 C   0  0  0  0  0  0  0  0  0  0  0  0
    4.0017    3.3781   -0.5183 N   0  0  0  0  0  0  0  0  0  0  0  0
    2.6999    3.6440   -0.7310 C   0  0  0  0  0  0  0  0  0  0  0  0
    2.2040    4.7803   -1.3022 N   0  0  0  0  0  0  0  0  0  0  0  0
    0.8356    4.7092   -1.3473 C   0  0  0  0  0  0  0  0  0  0  0  0
    0.4327    3.4962   -0.7999 C   0  0  0  0  0  0  0  0  0  0  0  0
    1.6258    2.8216   -0.4100 C   0  0  0  0  0  0  0  0  0  0  0  0
    1.8065    1.6036    0.1786 N   0  0  0  0  0  0  0  0  0  0  0  0
   -0.9545    3.0659   -0.6822 C   0  0  0  0  0  0  0  0  0  0  0  0
   -1.8923    3.7758   -1.0302 O   0  0  0  0  0  0  0  0  0  0  0  0
   -1.1168    1.8168   -0.1371 N   0  0  0  0  0  0  0  0  0  0  0  0
   -2.4103    1.1502   -0.0849 C   0  0  2  0  0  0  0  0  0  0  0  0
   -2.5163    0.5233    1.2782 C   0  0  0  0  0  0  0  0  0  0  0  0
   -3.8490    0.3654    1.9724 C   0  0  0  0  0  0  0  0  0  0  0  0
   -2.8725    1.3943    2.4626 C   0  0  0  0  0  0  0  0  0  0  0  0
   -2.5128    0.2379   -1.3355 C   0  0  0  0  0  0  0  0  0  0  0  0
   -2.1808    0.6641   -2.4500 O   0  0  0  0  0  0  0  0  0  0  0  0
   -2.9586   -1.0491   -1.2474 N   0  0  0  0  0  0  0  0  0  0  0  0
   -3.0800   -2.0261   -2.3299 C   0  0  0  0  0  0  0  0  0  0  0  0
   -3.2505   -2.0246   -0.2178 C   0  0  0  0  0  0  0  0  0  0  0  0
   -1.0594   -4.2614   -1.9230 H   0  0  0  0  0  0  0  0  0  0  0  0
   -1.1855   -4.1285   -0.1822 H   0  0  0  0  0  0  0  0  0  0  0  0
   -0.2530   -1.9625   -2.1338 H   0  0  0  0  0  0  0  0  0  0  0  0
   -0.5583   -1.6575   -0.4029 H   0  0  0  0  0  0  0  0  0  0  0  0
    2.2602   -1.7525   -1.9287 H   0  0  0  0  0  0  0  0  0  0  0  0
    1.5171   -0.9438   -0.5280 H   0  0  0  0  0  0  0  0  0  0  0  0
    2.7577   -2.6578    0.7906 H   0  0  0  0  0  0  0  0  0  0  0  0
    4.9022   -1.5361    0.6637 H   0  0  0  0  0  0  0  0  0  0  0  0
    4.3377   -0.6911   -0.7472 H   0  0  0  0  0  0  0  0  0  0  0  0
    1.7774    0.2263    2.6371 H   0  0  0  0  0  0  0  0  0  0  0  0
    2.3757   -1.4775    2.5407 H   0  0  0  0  0  0  0  0  0  0  0  0
    4.7185   -0.6986    2.8570 H   0  0  0  0  0  0  0  0  0  0  0  0
    4.1225    1.0073    3.0014 H   0  0  0  0  0  0  0  0  0  0  0  0
    5.1818    1.8990    0.2892 H   0  0  0  0  0  0  0  0  0  0  0  0
    2.7769    5.5447   -1.6310 H   0  0  0  0  0  0  0  0  0  0  0  0
    0.2498    5.5182   -1.7664 H   0  0  0  0  0  0  0  0  0  0  0  0
   -0.2784    1.3018    0.1135 H   0  0  0  0  0  0  0  0  0  0  0  0
   -3.2067    1.8955   -0.2065 H   0  0  0  0  0  0  0  0  0  0  0  0
   -1.7316   -0.2015    1.4636 H   0  0  0  0  0  0  0  0  0  0  0  0
   -4.0065   -0.5110    2.5913 H   0  0  0  0  0  0  0  0  0  0  0  0
   -4.7454    0.7209    1.4755 H   0  0  0  0  0  0  0  0  0  0  0  0
   -3.1026    2.4406    2.2881 H   0  0  0  0  0  0  0  0  0  0  0  0
   -2.3629    1.2090    3.4017 H   0  0  0  0  0  0  0  0  0  0  0  0
   -2.3417   -1.9270   -3.1296 H   0  0  0  0  0  0  0  0  0  0  0  0
   -4.0868   -2.0283   -2.7627 H   0  0  0  0  0  0  0  0  0  0  0  0
   -4.3121   -2.0345    0.0524 H   0  0  0  0  0  0  0  0  0  0  0  0
   -2.6416   -1.9974    0.6852 H   0  0  0  0  0  0  0  0  0  0  0  0
  1  2  3  0
  2  3  1  0
  3  4  1  0
  4  5  1  0
  5  6  1  0
  6  7  1  0
  7  8  1  0
  8  9  1  0
  9 10  1  0
 10 11  1  0
 11 12  1  0
 10 13  1  0
 13 14  2  0
 14 15  1  0
 15 16  2  0
 16 17  1  0
 17 18  1  0
 18 19  2  0
 19 20  1  0
 20 21  2  0
 19 22  1  0
 22 23  2  0
 22 24  1  0
 24 25  1  0
 25 26  1  0
 26 27  1  0
 27 28  1  0
 25 29  1  0
 29 30  2  0
 29 31  1  0
 31 32  1  0
 31 33  1  0
 32  3  1  0
 33  3  1  0
 12 10  1  0
 21 13  1  0
 28 26  1  0
 20 16  1  0
  4 34  1  0
  4 35  1  0
  5 36  1  0
  5 37  1  0
  7 38  1  0
  7 39  1  0
  8 40  1  0
  9 41  1  0
  9 42  1  0
 11 43  1  0
 11 44  1  0
 12 45  1  0
 12 46  1  0
 14 47  1  0
 17 48  1  0
 18 49  1  0
 24 50  1  0
 25 51  1  6
 26 52  1  0
 27 53  1  0
 27 54  1  0
 28 55  1  0
 28 56  1  0
 32 57  1  0
 32 58  1  0
 33 59  1  0
 33 60  1  0
M  END
>  <candidate_id>  (34) 
CAND_0e55be250e

>  <source_generator>  (34) 
v5_3_model_guided_macrocycle

>  <parent_mol_id>  (34) 
JAK2_c385760536

>  <canonical_smiles>  (34) 
N#CC12CCOCNCC3(CC3)c3cnc4[nH]cc(c4n3)C(=O)N[C@H](C3CC3)C(=O)N(C1)C2

>  <inchikey>  (34) 
ADIZWLKTINMVGG-QGZVFWFLSA-N

>  <valid_rdkit>  (34) 
True

>  <unique_flag>  (34) 
True

>  <novel_flag>  (34) 
True

>  <mw>  (34) 
449.515

>  <logp>  (34) 
0.8175

>  <tpsa>  (34) 
136.03

>  <hbd>  (34) 
3

>  <hba>  (34) 
7

>  <rotatable_bonds>  (34) 
1

>  <qed>  (34) 
0.5863

>  <sa_score>  (34) 
4.328

>  <murcko_scaffold>  (34) 
O=C1N[C@H](C2CC2)C(=O)N2CC(CCOCNCC3(CC3)c3cnc4[nH]cc1c4n3)C2

>  <max_ring_size>  (34) 
18

>  <has_macrocycle_12_20>  (34) 
True

>  <has_constrained_ring_8_11>  (34) 
False

>  <passes_basic_filters>  (34) 
True

>  <generation_notes>  (34) 
v5_3_model_guided_anchor_pair=2-18;anchor_scores=0.691,0.691;linker_length=6;target_ring=17;linker_prob=0.209;chemotype=oxa_aza

$$$$
CAND_97556b1c56
     RDKit          3D

 52 57  0  0  0  0  0  0  0  0999 V2000
    4.5828    2.1477    2.8290 N   0  0  0  0  0  0  0  0  0  0  0  0
    4.4007    1.7388    1.7587 C   0  0  0  0  0  0  0  0  0  0  0  0
    4.1575    1.2324    0.4304 C   0  0  0  0  0  0  0  0  0  0  0  0
    4.6809   -0.1834    0.1528 C   0  0  0  0  0  0  0  0  0  0  0  0
    3.3525   -0.4955   -0.3424 N   0  0  0  0  0  0  0  0  0  0  0  0
    2.9133   -1.6555   -0.9192 C   0  0  0  0  0  0  0  0  0  0  0  0
    3.6967   -2.5966   -1.0876 O   0  0  0  0  0  0  0  0  0  0  0  0
    1.3904   -1.8460   -1.1503 C   0  0  2  0  0  0  0  0  0  0  0  0
    0.6475   -0.6394   -1.4343 N   0  0  0  0  0  0  0  0  0  0  0  0
    0.7273    0.0356   -2.6284 C   0  0  0  0  0  0  0  0  0  0  0  0
    1.5280   -0.2457   -3.5115 O   0  0  0  0  0  0  0  0  0  0  0  0
   -0.2299    1.1280   -2.7393 C   0  0  0  0  0  0  0  0  0  0  0  0
   -0.4413    1.9486   -3.8389 C   0  0  0  0  0  0  0  0  0  0  0  0
   -1.4737    2.8134   -3.5469 N   0  0  0  0  0  0  0  0  0  0  0  0
   -1.9345    2.5659   -2.2835 C   0  0  0  0  0  0  0  0  0  0  0  0
   -2.9594    3.1753   -1.6604 N   0  0  0  0  0  0  0  0  0  0  0  0
   -3.1613    2.6260   -0.4242 C   0  0  0  0  0  0  0  0  0  0  0  0
   -2.4045    1.5989    0.1694 C   0  0  0  0  0  0  0  0  0  0  0  0
   -1.3472    1.0766   -0.4986 N   0  0  0  0  0  0  0  0  0  0  0  0
   -1.1575    1.5518   -1.7541 C   0  0  0  0  0  0  0  0  0  0  0  0
   -2.6945    1.0023    1.5636 C   0  0  0  0  0  0  0  0  0  0  0  0
   -4.0075    1.2697    2.2862 C   0  0  0  0  0  0  0  0  0  0  0  0
   -2.7654    1.9825    2.7302 C   0  0  0  0  0  0  0  0  0  0  0  0
   -2.0186   -0.3426    1.8428 C   0  0  0  0  0  0  0  0  0  0  0  0
   -2.8044   -1.6668    0.8722 S   0  0  0  0  0  0  0  0  0  0  0  0
   -1.6055   -3.0003    1.1455 C   0  0  0  0  0  0  0  0  0  0  0  0
   -0.6420   -3.0819   -0.0004 C   0  0  0  0  0  0  0  0  0  0  0  0
    0.5669   -3.9782    0.1343 C   0  0  0  0  0  0  0  0  0  0  0  0
    0.7536   -2.4836    0.0717 C   0  0  0  0  0  0  0  0  0  0  0  0
    2.7348    0.6989    0.1857 C   0  0  0  0  0  0  0  0  0  0  0  0
    4.4684    1.9426   -0.3484 H   0  0  0  0  0  0  0  0  0  0  0  0
    5.4610   -0.2477   -0.6105 H   0  0  0  0  0  0  0  0  0  0  0  0
    4.9545   -0.7884    1.0232 H   0  0  0  0  0  0  0  0  0  0  0  0
    1.2862   -2.4982   -2.0270 H   0  0  0  0  0  0  0  0  0  0  0  0
   -0.0879   -0.3626   -0.7877 H   0  0  0  0  0  0  0  0  0  0  0  0
    0.0431    1.9709   -4.8072 H   0  0  0  0  0  0  0  0  0  0  0  0
   -1.8653    3.5098   -4.1653 H   0  0  0  0  0  0  0  0  0  0  0  0
   -3.9987    3.0683    0.1068 H   0  0  0  0  0  0  0  0  0  0  0  0
   -4.4058    0.4940    2.9343 H   0  0  0  0  0  0  0  0  0  0  0  0
   -4.7904    1.8409    1.8035 H   0  0  0  0  0  0  0  0  0  0  0  0
   -2.6912    3.0469    2.5340 H   0  0  0  0  0  0  0  0  0  0  0  0
   -2.3282    1.6951    3.6809 H   0  0  0  0  0  0  0  0  0  0  0  0
   -2.1137   -0.6075    2.9020 H   0  0  0  0  0  0  0  0  0  0  0  0
   -0.9480   -0.2855    1.6195 H   0  0  0  0  0  0  0  0  0  0  0  0
   -2.1672   -3.9389    1.1967 H   0  0  0  0  0  0  0  0  0  0  0  0
   -1.0991   -2.8720    2.1079 H   0  0  0  0  0  0  0  0  0  0  0  0
   -1.1486   -3.1149   -0.9612 H   0  0  0  0  0  0  0  0  0  0  0  0
    0.7561   -4.4699    1.0826 H   0  0  0  0  0  0  0  0  0  0  0  0
    0.8552   -4.5751   -0.7254 H   0  0  0  0  0  0  0  0  0  0  0  0
    1.0385   -1.9793    0.9892 H   0  0  0  0  0  0  0  0  0  0  0  0
    2.1732    1.2934   -0.5371 H   0  0  0  0  0  0  0  0  0  0  0  0
    2.1224    0.5009    1.0709 H   0  0  0  0  0  0  0  0  0  0  0  0
  1  2  3  0
  2  3  1  0
  3  4  1  0
  4  5  1  0
  5  6  1  0
  6  7  2  0
  6  8  1  0
  8  9  1  0
  9 10  1  0
 10 11  2  0
 10 12  1  0
 12 13  2  0
 13 14  1  0
 14 15  1  0
 15 16  2  0
 16 17  1  0
 17 18  2  0
 18 19  1  0
 19 20  2  0
 18 21  1  0
 21 22  1  0
 22 23  1  0
 21 24  1  0
 24 25  1  0
 25 26  1  0
 26 27  1  0
 27 28  1  0
 28 29  1  0
  5 30  1  0
 30  3  1  0
 29  8  1  0
 20 12  1  0
 23 21  1  0
 29 27  1  0
 20 15  1  0
  3 31  1  0
  4 32  1  0
  4 33  1  0
  8 34  1  6
  9 35  1  0
 13 36  1  0
 14 37  1  0
 17 38  1  0
 22 39  1  0
 22 40  1  0
 23 41  1  0
 23 42  1  0
 24 43  1  0
 24 44  1  0
 26 45  1  0
 26 46  1  0
 27 47  1  0
 28 48  1  0
 28 49  1  0
 29 50  1  0
 30 51  1  0
 30 52  1  0
M  END
>  <candidate_id>  (35) 
CAND_97556b1c56

>  <source_generator>  (35) 
v5_3_model_guided_macrocycle

>  <parent_mol_id>  (35) 
JAK2_c385760536

>  <canonical_smiles>  (35) 
N#CC1CN(C(=O)[C@@H]2NC(=O)c3c[nH]c4ncc(nc34)C3(CC3)CSCC3CC32)C1

>  <inchikey>  (35) 
XGPLTYNGABJAJS-QWQCLYJRSA-N

>  <valid_rdkit>  (35) 
True

>  <unique_flag>  (35) 
True

>  <novel_flag>  (35) 
True

>  <mw>  (35) 
422.514

>  <logp>  (35) 
1.4528

>  <tpsa>  (35) 
114.77

>  <hbd>  (35) 
2

>  <hba>  (35) 
6

>  <rotatable_bonds>  (35) 
1

>  <qed>  (35) 
0.7189

>  <sa_score>  (35) 
4.678

>  <murcko_scaffold>  (35) 
O=C1N[C@@H](C(=O)N2CCC2)C2CC2CSCC2(CC2)c2cnc3[nH]cc1c3n2

>  <max_ring_size>  (35) 
13

>  <has_macrocycle_12_20>  (35) 
True

>  <has_constrained_ring_8_11>  (35) 
False

>  <passes_basic_filters>  (35) 
True

>  <generation_notes>  (35) 
v5_3_model_guided_anchor_pair=18-24;anchor_scores=0.691,0.079;linker_length=3;target_ring=12;linker_prob=0.264;chemotype=thioether

$$$$
CAND_ffa2b05eef
     RDKit          3D

 53 58  0  0  0  0  0  0  0  0999 V2000
    7.6547    1.2433   -1.5626 N   0  0  0  0  0  0  0  0  0  0  0  0
    6.9078    0.5604   -0.9952 C   0  0  0  0  0  0  0  0  0  0  0  0
    5.9916   -0.3076   -0.2984 C   0  0  0  0  0  0  0  0  0  0  0  0
    4.5349   -0.2799   -0.8000 C   0  0  0  0  0  0  0  0  0  0  0  0
    4.1540   -0.1867    0.5917 N   0  0  0  0  0  0  0  0  0  0  0  0
    2.9668   -0.2087    1.2659 C   0  0  0  0  0  0  0  0  0  0  0  0
    2.9142    0.0121    2.4786 O   0  0  0  0  0  0  0  0  0  0  0  0
    1.7005   -0.5341    0.4270 C   0  0  2  0  0  0  0  0  0  0  0  0
    0.7475    0.5449    0.5619 N   0  0  0  0  0  0  0  0  0  0  0  0
    0.9735    1.7797   -0.0030 C   0  0  0  0  0  0  0  0  0  0  0  0
    2.0617    2.1181   -0.4576 O   0  0  0  0  0  0  0  0  0  0  0  0
   -0.2027    2.6322   -0.0690 C   0  0  0  0  0  0  0  0  0  0  0  0
   -0.2291    3.9939   -0.3402 C   0  0  0  0  0  0  0  0  0  0  0  0
   -1.5423    4.4069   -0.3767 N   0  0  0  0  0  0  0  0  0  0  0  0
   -2.3637    3.3333   -0.1738 C   0  0  0  0  0  0  0  0  0  0  0  0
   -3.7089    3.3271   -0.2039 N   0  0  0  0  0  0  0  0  0  0  0  0
   -4.1835    2.0594   -0.0125 C   0  0  0  0  0  0  0  0  0  0  0  0
   -3.4165    0.9008    0.2136 C   0  0  0  0  0  0  0  0  0  0  0  0
   -2.0696    0.9997    0.2726 N   0  0  0  0  0  0  0  0  0  0  0  0
   -1.5562    2.2315    0.0468 C   0  0  0  0  0  0  0  0  0  0  0  0
   -4.0171   -0.5096    0.3904 C   0  0  0  0  0  0  0  0  0  0  0  0
   -5.3717   -0.6395    1.0832 C   0  0  0  0  0  0  0  0  0  0  0  0
   -5.2683   -0.8999   -0.3891 C   0  0  0  0  0  0  0  0  0  0  0  0
   -2.9987   -1.6211    0.6830 C   0  0  0  0  0  0  0  0  0  0  0  0
   -2.4375   -2.2339   -0.5286 N   0  0  0  0  0  0  0  0  0  0  0  0
   -1.0166   -1.9628   -0.7564 C   0  0  0  0  0  0  0  0  0  0  0  0
   -0.1581   -2.5296    0.3377 C   0  0  0  0  0  0  0  0  0  0  0  0
    1.2249   -3.0561    0.0386 C   0  0  0  0  0  0  0  0  0  0  0  0
    1.0791   -1.8308    0.9074 C   0  0  0  0  0  0  0  0  0  0  0  0
    5.4690    0.2157    1.0506 C   0  0  0  0  0  0  0  0  0  0  0  0
    6.3759   -1.3343   -0.2170 H   0  0  0  0  0  0  0  0  0  0  0  0
    4.2315    0.5956   -1.3820 H   0  0  0  0  0  0  0  0  0  0  0  0
    4.2047   -1.1970   -1.2948 H   0  0  0  0  0  0  0  0  0  0  0  0
    1.9548   -0.6035   -0.6354 H   0  0  0  0  0  0  0  0  0  0  0  0
   -0.1838    0.3378    0.9101 H   0  0  0  0  0  0  0  0  0  0  0  0
    0.5776    4.6938   -0.5191 H   0  0  0  0  0  0  0  0  0  0  0  0
   -1.8710    5.3433   -0.5655 H   0  0  0  0  0  0  0  0  0  0  0  0
   -5.2674    1.9988   -0.0557 H   0  0  0  0  0  0  0  0  0  0  0  0
   -5.8969    0.2484    1.4152 H   0  0  0  0  0  0  0  0  0  0  0  0
   -5.5475   -1.4911    1.7336 H   0  0  0  0  0  0  0  0  0  0  0  0
   -5.3727   -1.9285   -0.7217 H   0  0  0  0  0  0  0  0  0  0  0  0
   -5.7155   -0.1884   -1.0733 H   0  0  0  0  0  0  0  0  0  0  0  0
   -2.2345   -1.2638    1.3835 H   0  0  0  0  0  0  0  0  0  0  0  0
   -3.5082   -2.4317    1.2191 H   0  0  0  0  0  0  0  0  0  0  0  0
   -2.9602   -1.9124   -1.3410 H   0  0  0  0  0  0  0  0  0  0  0  0
   -0.7448   -2.4570   -1.6967 H   0  0  0  0  0  0  0  0  0  0  0  0
   -0.8452   -0.8986   -0.9195 H   0  0  0  0  0  0  0  0  0  0  0  0
   -0.7313   -3.1501    1.0226 H   0  0  0  0  0  0  0  0  0  0  0  0
    1.6039   -2.9506   -0.9719 H   0  0  0  0  0  0  0  0  0  0  0  0
    1.5255   -3.9823    0.5179 H   0  0  0  0  0  0  0  0  0  0  0  0
    1.2061   -1.9491    1.9817 H   0  0  0  0  0  0  0  0  0  0  0  0
    5.5388    1.2943    1.2242 H   0  0  0  0  0  0  0  0  0  0  0  0
    5.8202   -0.3326    1.9286 H   0  0  0  0  0  0  0  0  0  0  0  0
  1  2  3  0
  2  3  1  0
  3  4  1  0
  4  5  1  0
  5  6  1  0
  6  7  2  0
  6  8  1  0
  8  9  1  0
  9 10  1  0
 10 11  2  0
 10 12  1  0
 12 13  2  0
 13 14  1  0
 14 15  1  0
 15 16  2  0
 16 17  1  0
 17 18  2  0
 18 19  1  0
 19 20  2  0
 18 21  1  0
 21 22  1  0
 22 23  1  0
 21 24  1  0
 24 25  1  0
 25 26  1  0
 26 27  1  0
 27 28  1  0
 28 29  1  0
  5 30  1  0
 30  3  1  0
 29  8  1  0
 20 12  1  0
 23 21  1  0
 29 27  1  0
 20 15  1  0
  3 31  1  0
  4 32  1  0
  4 33  1  0
  8 34  1  6
  9 35  1  0
 13 36  1  0
 14 37  1  0
 17 38  1  0
 22 39  1  0
 22 40  1  0
 23 41  1  0
 23 42  1  0
 24 43  1  0
 24 44  1  0
 25 45  1  0
 26 46  1  0
 26 47  1  0
 27 48  1  0
 28 49  1  0
 28 50  1  0
 29 51  1  0
 30 52  1  0
 30 53  1  0
M  END
>  <candidate_id>  (36) 
CAND_ffa2b05eef

>  <source_generator>  (36) 
v5_3_model_guided_macrocycle

>  <parent_mol_id>  (36) 
JAK2_c385760536

>  <canonical_smiles>  (36) 
N#CC1CN(C(=O)[C@@H]2NC(=O)c3c[nH]c4ncc(nc34)C3(CC3)CNCC3CC32)C1

>  <inchikey>  (36) 
WTHHTEOIGGPMKZ-QWQCLYJRSA-N

>  <valid_rdkit>  (36) 
True

>  <unique_flag>  (36) 
True

>  <novel_flag>  (36) 
True

>  <mw>  (36) 
405.462

>  <logp>  (36) 
0.3092

>  <tpsa>  (36) 
126.8

>  <hbd>  (36) 
3

>  <hba>  (36) 
6

>  <rotatable_bonds>  (36) 
1

>  <qed>  (36) 
0.6267

>  <sa_score>  (36) 
4.583

>  <murcko_scaffold>  (36) 
O=C1N[C@@H](C(=O)N2CCC2)C2CC2CNCC2(CC2)c2cnc3[nH]cc1c3n2

>  <max_ring_size>  (36) 
13

>  <has_macrocycle_12_20>  (36) 
True

>  <has_constrained_ring_8_11>  (36) 
False

>  <passes_basic_filters>  (36) 
True

>  <generation_notes>  (36) 
v5_3_model_guided_anchor_pair=18-24;anchor_scores=0.691,0.079;linker_length=3;target_ring=12;linker_prob=0.264;chemotype=aza

$$$$
CAND_ff4ec3842f
     RDKit          3D

 59 63  0  0  0  0  0  0  0  0999 V2000
   -4.3027   -1.4561    1.2580 C   0  0  0  0  0  0  0  0  0  0  0  0
   -3.6209   -0.0843    1.0728 C   0  0  0  0  0  0  0  0  0  0  0  0
   -3.8946    0.3658   -0.3684 C   0  0  0  0  0  0  0  0  0  0  0  0
   -4.3494    0.8946    2.0257 C   0  0  0  0  0  0  0  0  0  0  0  0
   -2.0872   -0.1370    1.4385 C   0  0  1  0  0  0  0  0  0  0  0  0
   -1.2446   -1.0342    0.6401 N   0  0  0  0  0  0  0  0  0  0  0  0
   -1.1811   -2.3981    0.8322 C   0  0  0  0  0  0  0  0  0  0  0  0
   -1.9077   -3.0183    1.5980 O   0  0  0  0  0  0  0  0  0  0  0  0
   -0.1759   -3.0767    0.0299 C   0  0  0  0  0  0  0  0  0  0  0  0
   -0.2973   -4.3702   -0.4643 C   0  0  0  0  0  0  0  0  0  0  0  0
    0.8362   -4.6757   -1.1755 N   0  0  0  0  0  0  0  0  0  0  0  0
    1.7034   -3.6224   -1.1218 C   0  0  0  0  0  0  0  0  0  0  0  0
    2.9234   -3.5758   -1.6881 N   0  0  0  0  0  0  0  0  0  0  0  0
    3.5456   -2.4055   -1.3845 C   0  0  0  0  0  0  0  0  0  0  0  0
    3.0140   -1.3711   -0.5987 C   0  0  0  0  0  0  0  0  0  0  0  0
    1.7503   -1.4528   -0.0983 N   0  0  0  0  0  0  0  0  0  0  0  0
    1.1085   -2.6196   -0.3662 C   0  0  0  0  0  0  0  0  0  0  0  0
    3.8246   -0.1091   -0.2830 C   0  0  0  0  0  0  0  0  0  0  0  0
    3.4031    1.1283   -1.0627 C   0  0  0  0  0  0  0  0  0  0  0  0
    2.1360    1.7611   -0.4739 C   0  0  0  0  0  0  0  0  0  0  0  0
    1.4438    2.7056   -1.4573 C   0  0  0  0  0  0  0  0  0  0  0  0
   -0.0425    2.9635   -1.1305 C   0  0  0  0  0  0  0  0  0  0  0  0
   -0.5774    3.9487   -2.0606 C   0  0  0  0  0  0  0  0  0  0  0  0
   -0.9999    4.7270   -2.8100 N   0  0  0  0  0  0  0  0  0  0  0  0
   -0.4260    3.2636    0.3387 C   0  0  0  0  0  0  0  0  0  0  0  0
   -0.9866    1.9166    0.4027 N   0  0  0  0  0  0  0  0  0  0  0  0
   -0.9385    1.6952   -1.0276 C   0  0  0  0  0  0  0  0  0  0  0  0
   -1.4324    1.2727    1.5259 C   0  0  0  0  0  0  0  0  0  0  0  0
   -1.3951    1.8638    2.6120 O   0  0  0  0  0  0  0  0  0  0  0  0
    4.2741    0.0918    1.1579 C   0  0  0  0  0  0  0  0  0  0  0  0
    5.2897   -0.2417    0.1110 C   0  0  0  0  0  0  0  0  0  0  0  0
   -3.9703   -2.1769    0.5048 H   0  0  0  0  0  0  0  0  0  0  0  0
   -4.1124   -1.8643    2.2562 H   0  0  0  0  0  0  0  0  0  0  0  0
   -5.3913   -1.3764    1.1478 H   0  0  0  0  0  0  0  0  0  0  0  0
   -3.2899   -0.1946   -1.0883 H   0  0  0  0  0  0  0  0  0  0  0  0
   -4.9464    0.2107   -0.6381 H   0  0  0  0  0  0  0  0  0  0  0  0
   -3.7067    1.4352   -0.4924 H   0  0  0  0  0  0  0  0  0  0  0  0
   -5.4320    0.8859    1.8524 H   0  0  0  0  0  0  0  0  0  0  0  0
   -4.1798    0.6235    3.0738 H   0  0  0  0  0  0  0  0  0  0  0  0
   -4.0153    1.9277    1.8834 H   0  0  0  0  0  0  0  0  0  0  0  0
   -2.0201   -0.5330    2.4630 H   0  0  0  0  0  0  0  0  0  0  0  0
   -0.4703   -0.6343    0.1249 H   0  0  0  0  0  0  0  0  0  0  0  0
   -1.1030   -5.0875   -0.3676 H   0  0  0  0  0  0  0  0  0  0  0  0
    1.0324   -5.5462   -1.6493 H   0  0  0  0  0  0  0  0  0  0  0  0
    4.5449   -2.3130   -1.8014 H   0  0  0  0  0  0  0  0  0  0  0  0
    4.2042    1.8778   -1.0711 H   0  0  0  0  0  0  0  0  0  0  0  0
    3.2402    0.8396   -2.1086 H   0  0  0  0  0  0  0  0  0  0  0  0
    1.4488    0.9758   -0.1616 H   0  0  0  0  0  0  0  0  0  0  0  0
    2.3932    2.3061    0.4424 H   0  0  0  0  0  0  0  0  0  0  0  0
    1.9980    3.6535   -1.4718 H   0  0  0  0  0  0  0  0  0  0  0  0
    1.5077    2.2883   -2.4711 H   0  0  0  0  0  0  0  0  0  0  0  0
    0.4027    3.4299    1.0321 H   0  0  0  0  0  0  0  0  0  0  0  0
   -1.1913    4.0309    0.5004 H   0  0  0  0  0  0  0  0  0  0  0  0
   -1.9063    1.7875   -1.5241 H   0  0  0  0  0  0  0  0  0  0  0  0
   -0.4682    0.7650   -1.3512 H   0  0  0  0  0  0  0  0  0  0  0  0
    4.0203   -0.6707    1.8877 H   0  0  0  0  0  0  0  0  0  0  0  0
    4.2847    1.0942    1.5714 H   0  0  0  0  0  0  0  0  0  0  0  0
    5.7495   -1.2225    0.1688 H   0  0  0  0  0  0  0  0  0  0  0  0
    5.9837    0.5381   -0.1846 H   0  0  0  0  0  0  0  0  0  0  0  0
  1  2  1  0
  2  3  1  0
  2  4  1  0
  2  5  1  0
  5  6  1  0
  6  7  1  0
  7  8  2  0
  7  9  1  0
  9 10  2  0
 10 11  1  0
 11 12  1  0
 12 13  2  0
 13 14  1  0
 14 15  2  0
 15 16  1  0
 16 17  2  0
 15 18  1  0
 18 19  1  0
 19 20  1  0
 20 21  1  0
 21 22  1  0
 22 23  1  0
 23 24  3  0
 22 25  1  0
 25 26  1  0
 26 27  1  0
 26 28  1  0
 28 29  2  0
 18 30  1  0
 30 31  1  0
 28  5  1  0
 17  9  1  0
 31 18  1  0
 17 12  1  0
 27 22  1  0
  1 32  1  0
  1 33  1  0
  1 34  1  0
  3 35  1  0
  3 36  1  0
  3 37  1  0
  4 38  1  0
  4 39  1  0
  4 40  1  0
  5 41  1  1
  6 42  1  0
 10 43  1  0
 11 44  1  0
 14 45  1  0
 19 46  1  0
 19 47  1  0
 20 48  1  0
 20 49  1  0
 21 50  1  0
 21 51  1  0
 25 52  1  0
 25 53  1  0
 27 54  1  0
 27 55  1  0
 30 56  1  0
 30 57  1  0
 31 58  1  0
 31 59  1  0
M  END
>  <candidate_id>  (37) 
CAND_ff4ec3842f

>  <source_generator>  (37) 
v5_3_model_guided_macrocycle

>  <parent_mol_id>  (37) 
JAK2_1a53985c87

>  <canonical_smiles>  (37) 
CC(C)(C)[C@H]1NC(=O)c2c[nH]c3ncc(nc23)C2(CCCC3(C#N)CN(C3)C1=O)CC2

>  <inchikey>  (37) 
UKHZSAMVHXXKRG-KRWDZBQOSA-N

>  <valid_rdkit>  (37) 
True

>  <unique_flag>  (37) 
True

>  <novel_flag>  (37) 
True

>  <mw>  (37) 
420.517

>  <logp>  (37) 
2.6701

>  <tpsa>  (37) 
114.77

>  <hbd>  (37) 
2

>  <hba>  (37) 
5

>  <rotatable_bonds>  (37) 
0

>  <qed>  (37) 
0.6799

>  <sa_score>  (37) 
4.042

>  <murcko_scaffold>  (37) 
O=C1NCC(=O)N2CC(CCCC3(CC3)c3cnc4[nH]cc1c4n3)C2

>  <max_ring_size>  (37) 
15

>  <has_macrocycle_12_20>  (37) 
True

>  <has_constrained_ring_8_11>  (37) 
False

>  <passes_basic_filters>  (37) 
True

>  <generation_notes>  (37) 
v5_3_model_guided_anchor_pair=15-24;anchor_scores=0.691,0.691;linker_length=3;target_ring=14;linker_prob=0.291;chemotype=oxa_aza

$$$$
CAND_4ea78847f9
     RDKit          3D

 57 61  0  0  0  0  0  0  0  0999 V2000
   -4.9473   -1.1362   -0.5074 C   0  0  0  0  0  0  0  0  0  0  0  0
   -3.8997    0.0080   -0.4274 C   0  0  0  0  0  0  0  0  0  0  0  0
   -3.4666    0.2864   -1.8714 C   0  0  0  0  0  0  0  0  0  0  0  0
   -4.6296    1.2578    0.1095 C   0  0  0  0  0  0  0  0  0  0  0  0
   -2.7815   -0.4238    0.5789 C   0  0  1  0  0  0  0  0  0  0  0  0
   -1.9330   -1.5804    0.2660 N   0  0  0  0  0  0  0  0  0  0  0  0
   -0.9151   -1.5793   -0.6549 C   0  0  0  0  0  0  0  0  0  0  0  0
   -0.7833   -0.7355   -1.5285 O   0  0  0  0  0  0  0  0  0  0  0  0
    0.0965   -2.5912   -0.4113 C   0  0  0  0  0  0  0  0  0  0  0  0
   -0.0573   -3.9414   -0.1283 C   0  0  0  0  0  0  0  0  0  0  0  0
    1.1945   -4.4733    0.1110 N   0  0  0  0  0  0  0  0  0  0  0  0
    2.1341   -3.4799    0.0601 C   0  0  0  0  0  0  0  0  0  0  0  0
    3.4423   -3.5850    0.3685 N   0  0  0  0  0  0  0  0  0  0  0  0
    4.0459   -2.3586    0.3184 C   0  0  0  0  0  0  0  0  0  0  0  0
    3.4330   -1.1529   -0.0531 C   0  0  0  0  0  0  0  0  0  0  0  0
    2.1401   -1.1440   -0.4355 N   0  0  0  0  0  0  0  0  0  0  0  0
    1.4839   -2.3186   -0.3214 C   0  0  0  0  0  0  0  0  0  0  0  0
    4.1064    0.2145    0.0622 C   0  0  0  0  0  0  0  0  0  0  0  0
    4.5118    0.9210   -1.2262 C   0  0  0  0  0  0  0  0  0  0  0  0
    5.5721    0.3701   -0.3291 C   0  0  0  0  0  0  0  0  0  0  0  0
    3.5662    1.0700    1.2110 C   0  0  0  0  0  0  0  0  0  0  0  0
    2.6879    2.1346    0.7927 O   0  0  0  0  0  0  0  0  0  0  0  0
    1.4832    1.6727    0.1652 C   0  0  0  0  0  0  0  0  0  0  0  0
    0.3455    2.6912    0.3024 C   0  0  0  0  0  0  0  0  0  0  0  0
    0.7208    4.0278   -0.0980 C   0  0  0  0  0  0  0  0  0  0  0  0
    0.9741    5.1115   -0.4292 N   0  0  0  0  0  0  0  0  0  0  0  0
   -0.9720    2.1947   -0.3608 C   0  0  0  0  0  0  0  0  0  0  0  0
   -1.3188    1.6600    0.9354 N   0  0  0  0  0  0  0  0  0  0  0  0
   -0.4215    2.5841    1.6389 C   0  0  0  0  0  0  0  0  0  0  0  0
   -1.9896    0.5985    1.4526 C   0  0  0  0  0  0  0  0  0  0  0  0
   -1.8788    0.3624    2.6664 O   0  0  0  0  0  0  0  0  0  0  0  0
   -5.3895   -1.3464    0.4732 H   0  0  0  0  0  0  0  0  0  0  0  0
   -5.7701   -0.8765   -1.1839 H   0  0  0  0  0  0  0  0  0  0  0  0
   -4.4946   -2.0628   -0.8780 H   0  0  0  0  0  0  0  0  0  0  0  0
   -2.7427    1.0952   -1.9437 H   0  0  0  0  0  0  0  0  0  0  0  0
   -4.3265    0.5941   -2.4803 H   0  0  0  0  0  0  0  0  0  0  0  0
   -3.0589   -0.6064   -2.3538 H   0  0  0  0  0  0  0  0  0  0  0  0
   -5.5068    1.4988   -0.5024 H   0  0  0  0  0  0  0  0  0  0  0  0
   -3.9808    2.1389    0.1028 H   0  0  0  0  0  0  0  0  0  0  0  0
   -4.9799    1.1027    1.1363 H   0  0  0  0  0  0  0  0  0  0  0  0
   -3.3967   -0.8667    1.3834 H   0  0  0  0  0  0  0  0  0  0  0  0
   -1.9002   -2.3016    0.9753 H   0  0  0  0  0  0  0  0  0  0  0  0
   -0.9375   -4.5690   -0.0782 H   0  0  0  0  0  0  0  0  0  0  0  0
    1.4025   -5.4302    0.3598 H   0  0  0  0  0  0  0  0  0  0  0  0
    5.0873   -2.3666    0.6284 H   0  0  0  0  0  0  0  0  0  0  0  0
    4.3196    0.4194   -2.1688 H   0  0  0  0  0  0  0  0  0  0  0  0
    4.4024    1.9993   -1.2813 H   0  0  0  0  0  0  0  0  0  0  0  0
    6.1293   -0.4850   -0.6950 H   0  0  0  0  0  0  0  0  0  0  0  0
    6.1856    1.0822    0.2131 H   0  0  0  0  0  0  0  0  0  0  0  0
    4.4017    1.5520    1.7308 H   0  0  0  0  0  0  0  0  0  0  0  0
    3.0516    0.4600    1.9640 H   0  0  0  0  0  0  0  0  0  0  0  0
    1.6960    1.4902   -0.8939 H   0  0  0  0  0  0  0  0  0  0  0  0
    1.1679    0.7381    0.6376 H   0  0  0  0  0  0  0  0  0  0  0  0
   -0.8131    1.4875   -1.1668 H   0  0  0  0  0  0  0  0  0  0  0  0
   -1.6736    2.9701   -0.6884 H   0  0  0  0  0  0  0  0  0  0  0  0
    0.1304    2.1367    2.4706 H   0  0  0  0  0  0  0  0  0  0  0  0
   -0.9474    3.4814    1.9825 H   0  0  0  0  0  0  0  0  0  0  0  0
  1  2  1  0
  2  3  1  0
  2  4  1  0
  2  5  1  0
  5  6  1  0
  6  7  1  0
  7  8  2  0
  7  9  1  0
  9 10  2  0
 10 11  1  0
 11 12  1  0
 12 13  2  0
 13 14  1  0
 14 15  2  0
 15 16  1  0
 16 17  2  0
 15 18  1  0
 18 19  1  0
 19 20  1  0
 18 21  1  0
 21 22  1  0
 22 23  1  0
 23 24  1  0
 24 25  1  0
 25 26  3  0
 24 27  1  0
 27 28  1  0
 28 29  1  0
 28 30  1  0
 30 31  2  0
 30  5  1  0
 17  9  1  0
 20 18  1  0
 29 24  1  0
 17 12  1  0
  1 32  1  0
  1 33  1  0
  1 34  1  0
  3 35  1  0
  3 36  1  0
  3 37  1  0
  4 38  1  0
  4 39  1  0
  4 40  1  0
  5 41  1  1
  6 42  1  0
 10 43  1  0
 11 44  1  0
 14 45  1  0
 19 46  1  0
 19 47  1  0
 20 48  1  0
 20 49  1  0
 21 50  1  0
 21 51  1  0
 23 52  1  0
 23 53  1  0
 27 54  1  0
 27 55  1  0
 29 56  1  0
 29 57  1  0
M  END
>  <candidate_id>  (38) 
CAND_4ea78847f9

>  <source_generator>  (38) 
v5_3_model_guided_macrocycle

>  <parent_mol_id>  (38) 
JAK2_1a53985c87

>  <canonical_smiles>  (38) 
CC(C)(C)[C@H]1NC(=O)c2c[nH]c3ncc(nc23)C2(CC2)COCC2(C#N)CN(C2)C1=O

>  <inchikey>  (38) 
LLFMNXCGHFDIIM-INIZCTEOSA-N

>  <valid_rdkit>  (38) 
True

>  <unique_flag>  (38) 
True

>  <novel_flag>  (38) 
True

>  <mw>  (38) 
422.489

>  <logp>  (38) 
1.5164

>  <tpsa>  (38) 
124.0

>  <hbd>  (38) 
2

>  <hba>  (38) 
6

>  <rotatable_bonds>  (38) 
0

>  <qed>  (38) 
0.6633

>  <sa_score>  (38) 
4.053

>  <murcko_scaffold>  (38) 
O=C1NCC(=O)N2CC(COCC3(CC3)c3cnc4[nH]cc1c4n3)C2

>  <max_ring_size>  (38) 
15

>  <has_macrocycle_12_20>  (38) 
True

>  <has_constrained_ring_8_11>  (38) 
False

>  <passes_basic_filters>  (38) 
True

>  <generation_notes>  (38) 
v5_3_model_guided_anchor_pair=15-24;anchor_scores=0.691,0.691;linker_length=3;target_ring=14;linker_prob=0.291;chemotype=oxa

$$$$
CAND_d6e2fc541d
     RDKit          3D

 58 62  0  0  0  0  0  0  0  0999 V2000
   -4.6507   -1.2837    0.8233 C   0  0  0  0  0  0  0  0  0  0  0  0
   -3.6134   -0.1900    0.4635 C   0  0  0  0  0  0  0  0  0  0  0  0
   -3.6339   -0.0084   -1.0668 C   0  0  0  0  0  0  0  0  0  0  0  0
   -4.1562    1.1114    1.1033 C   0  0  0  0  0  0  0  0  0  0  0  0
   -2.1954   -0.6044    1.0336 C   0  0  1  0  0  0  0  0  0  0  0  0
   -1.2312   -1.1515    0.0725 N   0  0  0  0  0  0  0  0  0  0  0  0
   -1.3635   -2.3774   -0.5400 C   0  0  0  0  0  0  0  0  0  0  0  0
   -2.3489   -3.0948   -0.4202 O   0  0  0  0  0  0  0  0  0  0  0  0
   -0.2454   -2.7571   -1.3898 C   0  0  0  0  0  0  0  0  0  0  0  0
   -0.3072   -3.6889   -2.4199 C   0  0  0  0  0  0  0  0  0  0  0  0
    0.9230   -3.7556   -3.0255 N   0  0  0  0  0  0  0  0  0  0  0  0
    1.7855   -2.9038   -2.3970 C   0  0  0  0  0  0  0  0  0  0  0  0
    3.0744   -2.6972   -2.7258 N   0  0  0  0  0  0  0  0  0  0  0  0
    3.6446   -1.8045   -1.8721 C   0  0  0  0  0  0  0  0  0  0  0  0
    3.0109   -1.1826   -0.7845 C   0  0  0  0  0  0  0  0  0  0  0  0
    1.6979   -1.4170   -0.5152 N   0  0  0  0  0  0  0  0  0  0  0  0
    1.0952   -2.2943   -1.3575 C   0  0  0  0  0  0  0  0  0  0  0  0
    3.7669   -0.2205    0.1355 C   0  0  0  0  0  0  0  0  0  0  0  0
    5.1536   -0.6072    0.6366 C   0  0  0  0  0  0  0  0  0  0  0  0
    3.9914   -0.6665    1.5776 C   0  0  0  0  0  0  0  0  0  0  0  0
    3.4760    1.2542   -0.1060 C   0  0  0  0  0  0  0  0  0  0  0  0
    2.1209    1.5334    0.3596 N   0  0  0  0  0  0  0  0  0  0  0  0
    1.6903    2.9069    0.1097 C   0  0  0  0  0  0  0  0  0  0  0  0
    0.1881    3.1154    0.3904 C   0  0  0  0  0  0  0  0  0  0  0  0
   -0.1961    4.4598   -0.0040 C   0  0  0  0  0  0  0  0  0  0  0  0
   -0.4918    5.5357   -0.3222 N   0  0  0  0  0  0  0  0  0  0  0  0
   -0.3018    2.7417    1.8107 C   0  0  0  0  0  0  0  0  0  0  0  0
   -0.9114    1.5609    1.2177 N   0  0  0  0  0  0  0  0  0  0  0  0
   -0.7726    2.0191   -0.1493 C   0  0  0  0  0  0  0  0  0  0  0  0
   -1.4959    0.5065    1.8615 C   0  0  0  0  0  0  0  0  0  0  0  0
   -1.5361    0.4857    3.0961 O   0  0  0  0  0  0  0  0  0  0  0  0
   -5.6552   -1.0038    0.4838 H   0  0  0  0  0  0  0  0  0  0  0  0
   -4.4191   -2.2451    0.3615 H   0  0  0  0  0  0  0  0  0  0  0  0
   -4.7023   -1.4365    1.9075 H   0  0  0  0  0  0  0  0  0  0  0  0
   -2.8789    0.7038   -1.4048 H   0  0  0  0  0  0  0  0  0  0  0  0
   -4.6076    0.3666   -1.4042 H   0  0  0  0  0  0  0  0  0  0  0  0
   -3.4651   -0.9514   -1.5951 H   0  0  0  0  0  0  0  0  0  0  0  0
   -3.5656    1.9877    0.8244 H   0  0  0  0  0  0  0  0  0  0  0  0
   -5.1832    1.3136    0.7748 H   0  0  0  0  0  0  0  0  0  0  0  0
   -4.1785    1.0409    2.1965 H   0  0  0  0  0  0  0  0  0  0  0  0
   -2.3500   -1.4197    1.7552 H   0  0  0  0  0  0  0  0  0  0  0  0
   -0.3122   -0.7157    0.0100 H   0  0  0  0  0  0  0  0  0  0  0  0
   -1.1345   -4.2918   -2.7734 H   0  0  0  0  0  0  0  0  0  0  0  0
    1.1751   -4.3375   -3.8118 H   0  0  0  0  0  0  0  0  0  0  0  0
    4.6891   -1.5937   -2.0852 H   0  0  0  0  0  0  0  0  0  0  0  0
    5.5915   -1.5535    0.3372 H   0  0  0  0  0  0  0  0  0  0  0  0
    5.8895    0.1745    0.7922 H   0  0  0  0  0  0  0  0  0  0  0  0
    3.9427    0.0725    2.3692 H   0  0  0  0  0  0  0  0  0  0  0  0
    3.6205   -1.6422    1.8756 H   0  0  0  0  0  0  0  0  0  0  0  0
    4.1939    1.8846    0.4322 H   0  0  0  0  0  0  0  0  0  0  0  0
    3.5765    1.4715   -1.1760 H   0  0  0  0  0  0  0  0  0  0  0  0
    2.0504    1.2952    1.3494 H   0  0  0  0  0  0  0  0  0  0  0  0
    2.2859    3.5938    0.7246 H   0  0  0  0  0  0  0  0  0  0  0  0
    1.8880    3.1511   -0.9426 H   0  0  0  0  0  0  0  0  0  0  0  0
   -1.0484    3.4036    2.2634 H   0  0  0  0  0  0  0  0  0  0  0  0
    0.4745    2.5155    2.5472 H   0  0  0  0  0  0  0  0  0  0  0  0
   -1.7124    2.3923   -0.5665 H   0  0  0  0  0  0  0  0  0  0  0  0
   -0.3318    1.2983   -0.8409 H   0  0  0  0  0  0  0  0  0  0  0  0
  1  2  1  0
  2  3  1  0
  2  4  1  0
  2  5  1  0
  5  6  1  0
  6  7  1  0
  7  8  2  0
  7  9  1  0
  9 10  2  0
 10 11  1  0
 11 12  1  0
 12 13  2  0
 13 14  1  0
 14 15  2  0
 15 16  1  0
 16 17  2  0
 15 18  1  0
 18 19  1  0
 19 20  1  0
 18 21  1  0
 21 22  1  0
 22 23  1  0
 23 24  1  0
 24 25  1  0
 25 26  3  0
 24 27  1  0
 27 28  1  0
 28 29  1  0
 28 30  1  0
 30 31  2  0
 30  5  1  0
 17  9  1  0
 20 18  1  0
 29 24  1  0
 17 12  1  0
  1 32  1  0
  1 33  1  0
  1 34  1  0
  3 35  1  0
  3 36  1  0
  3 37  1  0
  4 38  1  0
  4 39  1  0
  4 40  1  0
  5 41  1  1
  6 42  1  0
 10 43  1  0
 11 44  1  0
 14 45  1  0
 19 46  1  0
 19 47  1  0
 20 48  1  0
 20 49  1  0
 21 50  1  0
 21 51  1  0
 22 52  1  0
 23 53  1  0
 23 54  1  0
 27 55  1  0
 27 56  1  0
 29 57  1  0
 29 58  1  0
M  END
>  <candidate_id>  (39) 
CAND_d6e2fc541d

>  <source_generator>  (39) 
v5_3_model_guided_macrocycle

>  <parent_mol_id>  (39) 
JAK2_1a53985c87

>  <canonical_smiles>  (39) 
CC(C)(C)[C@H]1NC(=O)c2c[nH]c3ncc(nc23)C2(CC2)CNCC2(C#N)CN(C2)C1=O

>  <inchikey>  (39) 
PFYDKIOCMNZLOV-INIZCTEOSA-N

>  <valid_rdkit>  (39) 
True

>  <unique_flag>  (39) 
True

>  <novel_flag>  (39) 
True

>  <mw>  (39) 
421.505

>  <logp>  (39) 
1.0894

>  <tpsa>  (39) 
126.8

>  <hbd>  (39) 
3

>  <hba>  (39) 
6

>  <rotatable_bonds>  (39) 
0

>  <qed>  (39) 
0.5844

>  <sa_score>  (39) 
4.047

>  <murcko_scaffold>  (39) 
O=C1NCC(=O)N2CC(CNCC3(CC3)c3cnc4[nH]cc1c4n3)C2

>  <max_ring_size>  (39) 
15

>  <has_macrocycle_12_20>  (39) 
True

>  <has_constrained_ring_8_11>  (39) 
False

>  <passes_basic_filters>  (39) 
True

>  <generation_notes>  (39) 
v5_3_model_guided_anchor_pair=15-24;anchor_scores=0.691,0.691;linker_length=3;target_ring=14;linker_prob=0.291;chemotype=aza

$$$$
CAND_aaa379f29a
     RDKit          3D

 57 61  0  0  0  0  0  0  0  0999 V2000
   -3.5366   -1.5436    2.0729 C   0  0  0  0  0  0  0  0  0  0  0  0
   -3.7737   -0.4413    1.0135 C   0  0  0  0  0  0  0  0  0  0  0  0
   -4.6468   -1.0343   -0.1041 C   0  0  0  0  0  0  0  0  0  0  0  0
   -4.5819    0.6787    1.7128 C   0  0  0  0  0  0  0  0  0  0  0  0
   -2.3979    0.1286    0.5221 C   0  0  1  0  0  0  0  0  0  0  0  0
   -1.3506   -0.8745    0.2681 N   0  0  0  0  0  0  0  0  0  0  0  0
   -1.3130   -1.7008   -0.8248 C   0  0  0  0  0  0  0  0  0  0  0  0
   -2.2087   -1.7614   -1.6570 O   0  0  0  0  0  0  0  0  0  0  0  0
   -0.0854   -2.4730   -0.9715 C   0  0  0  0  0  0  0  0  0  0  0  0
   -0.0022   -3.6577   -1.6948 C   0  0  0  0  0  0  0  0  0  0  0  0
    1.3093   -4.0512   -1.7449 N   0  0  0  0  0  0  0  0  0  0  0  0
    2.0851   -3.1192   -1.1195 C   0  0  0  0  0  0  0  0  0  0  0  0
    3.4290   -3.1176   -1.0975 N   0  0  0  0  0  0  0  0  0  0  0  0
    3.8941   -1.9938   -0.4929 C   0  0  0  0  0  0  0  0  0  0  0  0
    3.1130   -0.9972    0.1158 C   0  0  0  0  0  0  0  0  0  0  0  0
    1.7499   -1.0958    0.1340 N   0  0  0  0  0  0  0  0  0  0  0  0
    1.2477   -2.1585   -0.5627 C   0  0  0  0  0  0  0  0  0  0  0  0
    3.7658    0.2558    0.7391 C   0  0  0  0  0  0  0  0  0  0  0  0
    5.1567    0.1718    1.3622 C   0  0  0  0  0  0  0  0  0  0  0  0
    3.9580    0.2002    2.2547 C   0  0  0  0  0  0  0  0  0  0  0  0
    3.3147    1.6138    0.2000 C   0  0  0  0  0  0  0  0  0  0  0  0
    3.1791    1.6723   -1.6121 S   0  0  0  0  0  0  0  0  0  0  0  0
    1.8354    2.8867   -1.9024 C   0  0  0  0  0  0  0  0  0  0  0  0
    0.5721    2.8038   -1.0427 C   0  0  0  0  0  0  0  0  0  0  0  0
    0.6568    3.7295    0.0796 C   0  0  0  0  0  0  0  0  0  0  0  0
    0.7615    4.4536    0.9800 N   0  0  0  0  0  0  0  0  0  0  0  0
   -0.8147    2.8879   -1.7731 C   0  0  0  0  0  0  0  0  0  0  0  0
   -1.2071    1.7523   -0.9555 N   0  0  0  0  0  0  0  0  0  0  0  0
    0.1444    1.3749   -0.6496 C   0  0  0  0  0  0  0  0  0  0  0  0
   -2.4312    1.2743   -0.5576 C   0  0  0  0  0  0  0  0  0  0  0  0
   -3.4587    1.8571   -0.9017 O   0  0  0  0  0  0  0  0  0  0  0  0
   -2.9221   -1.1708    2.9002 H   0  0  0  0  0  0  0  0  0  0  0  0
   -4.4844   -1.8958    2.4967 H   0  0  0  0  0  0  0  0  0  0  0  0
   -3.0325   -2.4167    1.6448 H   0  0  0  0  0  0  0  0  0  0  0  0
   -4.7377   -0.3604   -0.9603 H   0  0  0  0  0  0  0  0  0  0  0  0
   -5.6624   -1.2333    0.2594 H   0  0  0  0  0  0  0  0  0  0  0  0
   -4.2595   -1.9928   -0.4590 H   0  0  0  0  0  0  0  0  0  0  0  0
   -5.4899    0.2778    2.1791 H   0  0  0  0  0  0  0  0  0  0  0  0
   -4.9033    1.4559    1.0143 H   0  0  0  0  0  0  0  0  0  0  0  0
   -3.9944    1.1578    2.5042 H   0  0  0  0  0  0  0  0  0  0  0  0
   -1.9858    0.6552    1.3984 H   0  0  0  0  0  0  0  0  0  0  0  0
   -0.5639   -0.9175    0.9068 H   0  0  0  0  0  0  0  0  0  0  0  0
   -0.7720   -4.2252   -2.2036 H   0  0  0  0  0  0  0  0  0  0  0  0
    1.6780   -4.8519   -2.2386 H   0  0  0  0  0  0  0  0  0  0  0  0
    4.9760   -1.9019   -0.5202 H   0  0  0  0  0  0  0  0  0  0  0  0
    5.7917    1.0520    1.3354 H   0  0  0  0  0  0  0  0  0  0  0  0
    5.7232   -0.7519    1.3325 H   0  0  0  0  0  0  0  0  0  0  0  0
    3.7794    1.0978    2.8376 H   0  0  0  0  0  0  0  0  0  0  0  0
    3.6922   -0.7117    2.7801 H   0  0  0  0  0  0  0  0  0  0  0  0
    4.0192    2.3991    0.4962 H   0  0  0  0  0  0  0  0  0  0  0  0
    2.3699    1.8474    0.6854 H   0  0  0  0  0  0  0  0  0  0  0  0
    2.2784    3.8896   -1.8648 H   0  0  0  0  0  0  0  0  0  0  0  0
    1.5615    2.7359   -2.9534 H   0  0  0  0  0  0  0  0  0  0  0  0
   -0.8149    2.6485   -2.8412 H   0  0  0  0  0  0  0  0  0  0  0  0
   -1.4062    3.7907   -1.5957 H   0  0  0  0  0  0  0  0  0  0  0  0
    0.4841    0.5844   -1.3217 H   0  0  0  0  0  0  0  0  0  0  0  0
    0.3113    1.1160    0.3974 H   0  0  0  0  0  0  0  0  0  0  0  0
  1  2  1  0
  2  3  1  0
  2  4  1  0
  2  5  1  0
  5  6  1  0
  6  7  1  0
  7  8  2  0
  7  9  1  0
  9 10  2  0
 10 11  1  0
 11 12  1  0
 12 13  2  0
 13 14  1  0
 14 15  2  0
 15 16  1  0
 16 17  2  0
 15 18  1  0
 18 19  1  0
 19 20  1  0
 18 21  1  0
 21 22  1  0
 22 23  1  0
 23 24  1  0
 24 25  1  0
 25 26  3  0
 24 27  1  0
 27 28  1  0
 28 29  1  0
 28 30  1  0
 30 31  2  0
 30  5  1  0
 17  9  1  0
 20 18  1  0
 29 24  1  0
 17 12  1  0
  1 32  1  0
  1 33  1  0
  1 34  1  0
  3 35  1  0
  3 36  1  0
  3 37  1  0
  4 38  1  0
  4 39  1  0
  4 40  1  0
  5 41  1  1
  6 42  1  0
 10 43  1  0
 11 44  1  0
 14 45  1  0
 19 46  1  0
 19 47  1  0
 20 48  1  0
 20 49  1  0
 21 50  1  0
 21 51  1  0
 23 52  1  0
 23 53  1  0
 27 54  1  0
 27 55  1  0
 29 56  1  0
 29 57  1  0
M  END
>  <candidate_id>  (40) 
CAND_aaa379f29a

>  <source_generator>  (40) 
v5_3_model_guided_macrocycle

>  <parent_mol_id>  (40) 
JAK2_1a53985c87

>  <canonical_smiles>  (40) 
CC(C)(C)[C@H]1NC(=O)c2c[nH]c3ncc(nc23)C2(CC2)CSCC2(C#N)CN(C2)C1=O

>  <inchikey>  (40) 
HDHLLIARLPEAJD-INIZCTEOSA-N

>  <valid_rdkit>  (40) 
True

>  <unique_flag>  (40) 
True

>  <novel_flag>  (40) 
True

>  <mw>  (40) 
438.557

>  <logp>  (40) 
2.233

>  <tpsa>  (40) 
114.77

>  <hbd>  (40) 
2

>  <hba>  (40) 
6

>  <rotatable_bonds>  (40) 
0

>  <qed>  (40) 
0.6518

>  <sa_score>  (40) 
4.142

>  <murcko_scaffold>  (40) 
O=C1NCC(=O)N2CC(CSCC3(CC3)c3cnc4[nH]cc1c4n3)C2

>  <max_ring_size>  (40) 
15

>  <has_macrocycle_12_20>  (40) 
True

>  <has_constrained_ring_8_11>  (40) 
False

>  <passes_basic_filters>  (40) 
True

>  <generation_notes>  (40) 
v5_3_model_guided_anchor_pair=15-24;anchor_scores=0.691,0.691;linker_length=3;target_ring=14;linker_prob=0.291;chemotype=thioether

$$$$
CAND_91833501ec
     RDKit          3D

 68 72  0  0  0  0  0  0  0  0999 V2000
   -5.8288    0.5320   -1.3228 C   0  0  0  0  0  0  0  0  0  0  0  0
   -4.7398    0.8664   -0.2808 C   0  0  0  0  0  0  0  0  0  0  0  0
   -5.0144    2.3059    0.2140 C   0  0  0  0  0  0  0  0  0  0  0  0
   -4.8993   -0.0973    0.9089 C   0  0  0  0  0  0  0  0  0  0  0  0
   -3.3101    0.7914   -0.9233 C   0  0  1  0  0  0  0  0  0  0  0  0
   -2.2786    1.2739   -0.0057 N   0  0  0  0  0  0  0  0  0  0  0  0
   -1.0588    1.7148   -0.4762 C   0  0  0  0  0  0  0  0  0  0  0  0
   -0.7245    1.5933   -1.6478 O   0  0  0  0  0  0  0  0  0  0  0  0
   -0.2098    2.3110    0.5418 C   0  0  0  0  0  0  0  0  0  0  0  0
   -0.6314    3.0488    1.6451 C   0  0  0  0  0  0  0  0  0  0  0  0
    0.4801    3.4811    2.3272 N   0  0  0  0  0  0  0  0  0  0  0  0
    1.6044    3.0209    1.7069 C   0  0  0  0  0  0  0  0  0  0  0  0
    2.8670    3.2475    2.1136 N   0  0  0  0  0  0  0  0  0  0  0  0
    3.7487    2.6348    1.2797 C   0  0  0  0  0  0  0  0  0  0  0  0
    3.4193    1.8544    0.1600 C   0  0  0  0  0  0  0  0  0  0  0  0
    2.1244    1.6692   -0.2008 N   0  0  0  0  0  0  0  0  0  0  0  0
    1.2122    2.2825    0.5960 C   0  0  0  0  0  0  0  0  0  0  0  0
    4.5152    1.1806   -0.6700 C   0  0  0  0  0  0  0  0  0  0  0  0
    5.2512    0.0392    0.0199 C   0  0  0  0  0  0  0  0  0  0  0  0
    4.6260   -1.3486   -0.1621 C   0  0  0  0  0  0  0  0  0  0  0  0
    3.1882   -1.4656    0.3457 C   0  0  0  0  0  0  0  0  0  0  0  0
    2.7740   -2.9286    0.5256 C   0  0  0  0  0  0  0  0  0  0  0  0
    1.2927   -3.0718    0.8894 C   0  0  0  0  0  0  0  0  0  0  0  0
    0.3863   -3.0636   -0.3492 C   0  0  0  0  0  0  0  0  0  0  0  0
   -1.1106   -3.0070    0.0111 C   0  0  0  0  0  0  0  0  0  0  0  0
   -1.5230   -4.0774    0.9011 C   0  0  0  0  0  0  0  0  0  0  0  0
   -1.8547   -4.9225    1.6237 N   0  0  0  0  0  0  0  0  0  0  0  0
   -2.0086   -2.8954   -1.2416 C   0  0  0  0  0  0  0  0  0  0  0  0
   -2.2928   -1.5272   -0.8475 N   0  0  0  0  0  0  0  0  0  0  0  0
   -1.6240   -1.6049    0.4294 C   0  0  0  0  0  0  0  0  0  0  0  0
   -3.0011   -0.5969   -1.5525 C   0  0  0  0  0  0  0  0  0  0  0  0
   -3.5102   -0.9137   -2.6340 O   0  0  0  0  0  0  0  0  0  0  0  0
    5.3279    2.0889   -1.5883 C   0  0  0  0  0  0  0  0  0  0  0  0
    4.3565    1.1189   -2.1823 C   0  0  0  0  0  0  0  0  0  0  0  0
   -5.7160    1.1452   -2.2238 H   0  0  0  0  0  0  0  0  0  0  0  0
   -5.8004   -0.5212   -1.6196 H   0  0  0  0  0  0  0  0  0  0  0  0
   -6.8315    0.7182   -0.9201 H   0  0  0  0  0  0  0  0  0  0  0  0
   -4.3435    2.5945    1.0298 H   0  0  0  0  0  0  0  0  0  0  0  0
   -6.0384    2.4057    0.5925 H   0  0  0  0  0  0  0  0  0  0  0  0
   -4.8896    3.0311   -0.5980 H   0  0  0  0  0  0  0  0  0  0  0  0
   -4.1739    0.1105    1.7017 H   0  0  0  0  0  0  0  0  0  0  0  0
   -4.7768   -1.1408    0.6009 H   0  0  0  0  0  0  0  0  0  0  0  0
   -5.8977   -0.0081    1.3531 H   0  0  0  0  0  0  0  0  0  0  0  0
   -3.2912    1.4880   -1.7747 H   0  0  0  0  0  0  0  0  0  0  0  0
   -2.4693    1.3281    0.9834 H   0  0  0  0  0  0  0  0  0  0  0  0
   -1.6191    3.3382    1.9792 H   0  0  0  0  0  0  0  0  0  0  0  0
    0.4943    4.0577    3.1569 H   0  0  0  0  0  0  0  0  0  0  0  0
    4.7920    2.7813    1.5467 H   0  0  0  0  0  0  0  0  0  0  0  0
    5.3474    0.2510    1.0922 H   0  0  0  0  0  0  0  0  0  0  0  0
    6.2806   -0.0119   -0.3585 H   0  0  0  0  0  0  0  0  0  0  0  0
    4.6558   -1.6379   -1.2193 H   0  0  0  0  0  0  0  0  0  0  0  0
    5.2595   -2.0677    0.3727 H   0  0  0  0  0  0  0  0  0  0  0  0
    2.5152   -0.9785   -0.3665 H   0  0  0  0  0  0  0  0  0  0  0  0
    3.0855   -0.9493    1.3076 H   0  0  0  0  0  0  0  0  0  0  0  0
    3.3750   -3.3594    1.3362 H   0  0  0  0  0  0  0  0  0  0  0  0
    2.9997   -3.5071   -0.3782 H   0  0  0  0  0  0  0  0  0  0  0  0
    0.9981   -2.2862    1.5951 H   0  0  0  0  0  0  0  0  0  0  0  0
    1.1642   -4.0263    1.4143 H   0  0  0  0  0  0  0  0  0  0  0  0
    0.6420   -2.2103   -0.9899 H   0  0  0  0  0  0  0  0  0  0  0  0
    0.5890   -3.9651   -0.9428 H   0  0  0  0  0  0  0  0  0  0  0  0
   -1.4997   -2.9695   -2.2078 H   0  0  0  0  0  0  0  0  0  0  0  0
   -2.9104   -3.5170   -1.2582 H   0  0  0  0  0  0  0  0  0  0  0  0
   -2.3162   -1.5767    1.2760 H   0  0  0  0  0  0  0  0  0  0  0  0
   -0.8362   -0.8633    0.5769 H   0  0  0  0  0  0  0  0  0  0  0  0
    6.3849    1.8913   -1.7263 H   0  0  0  0  0  0  0  0  0  0  0  0
    5.0741    3.1425   -1.6475 H   0  0  0  0  0  0  0  0  0  0  0  0
    4.7568    0.2675   -2.7202 H   0  0  0  0  0  0  0  0  0  0  0  0
    3.4426    1.5103   -2.6195 H   0  0  0  0  0  0  0  0  0  0  0  0
  1  2  1  0
  2  3  1  0
  2  4  1  0
  2  5  1  0
  5  6  1  0
  6  7  1  0
  7  8  2  0
  7  9  1  0
  9 10  2  0
 10 11  1  0
 11 12  1  0
 12 13  2  0
 13 14  1  0
 14 15  2  0
 15 16  1  0
 16 17  2  0
 15 18  1  0
 18 19  1  0
 19 20  1  0
 20 21  1  0
 21 22  1  0
 22 23  1  0
 23 24  1  0
 24 25  1  0
 25 26  1  0
 26 27  3  0
 25 28  1  0
 28 29  1  0
 29 30  1  0
 29 31  1  0
 31 32  2  0
 18 33  1  0
 33 34  1  0
 31  5  1  0
 17  9  1  0
 34 18  1  0
 17 12  1  0
 30 25  1  0
  1 35  1  0
  1 36  1  0
  1 37  1  0
  3 38  1  0
  3 39  1  0
  3 40  1  0
  4 41  1  0
  4 42  1  0
  4 43  1  0
  5 44  1  6
  6 45  1  0
 10 46  1  0
 11 47  1  0
 14 48  1  0
 19 49  1  0
 19 50  1  0
 20 51  1  0
 20 52  1  0
 21 53  1  0
 21 54  1  0
 22 55  1  0
 22 56  1  0
 23 57  1  0
 23 58  1  0
 24 59  1  0
 24 60  1  0
 28 61  1  0
 28 62  1  0
 30 63  1  0
 30 64  1  0
 33 65  1  0
 33 66  1  0
 34 67  1  0
 34 68  1  0
M  END
>  <candidate_id>  (41) 
CAND_91833501ec

>  <source_generator>  (41) 
v5_3_model_guided_macrocycle

>  <parent_mol_id>  (41) 
JAK2_1a53985c87

>  <canonical_smiles>  (41) 
CC(C)(C)[C@H]1NC(=O)c2c[nH]c3ncc(nc23)C2(CCCCCCC3(C#N)CN(C3)C1=O)CC2

>  <inchikey>  (41) 
ZRRCLZIZDXXRHT-FQEVSTJZSA-N

>  <valid_rdkit>  (41) 
True

>  <unique_flag>  (41) 
True

>  <novel_flag>  (41) 
True

>  <mw>  (41) 
462.598

>  <logp>  (41) 
3.8404

>  <tpsa>  (41) 
114.77

>  <hbd>  (41) 
2

>  <hba>  (41) 
5

>  <rotatable_bonds>  (41) 
0

>  <qed>  (41) 
0.6172

>  <sa_score>  (41) 
4.276

>  <murcko_scaffold>  (41) 
O=C1NCC(=O)N2CC(CCCCCCC3(CC3)c3cnc4[nH]cc1c4n3)C2

>  <max_ring_size>  (41) 
18

>  <has_macrocycle_12_20>  (41) 
True

>  <has_constrained_ring_8_11>  (41) 
False

>  <passes_basic_filters>  (41) 
True

>  <generation_notes>  (41) 
v5_3_model_guided_anchor_pair=15-24;anchor_scores=0.691,0.691;linker_length=6;target_ring=17;linker_prob=0.248;chemotype=alkyl

$$$$
CAND_5fdf8771a8
     RDKit          3D

 66 70  0  0  0  0  0  0  0  0999 V2000
   -4.9717   -1.2261   -1.4960 C   0  0  0  0  0  0  0  0  0  0  0  0
   -4.4707   -0.7845   -0.1083 C   0  0  0  0  0  0  0  0  0  0  0  0
   -5.3245    0.4107    0.3622 C   0  0  0  0  0  0  0  0  0  0  0  0
   -4.7021   -1.9497    0.8787 C   0  0  0  0  0  0  0  0  0  0  0  0
   -2.9624   -0.3914   -0.0851 C   0  0  1  0  0  0  0  0  0  0  0  0
   -2.0796   -1.4719   -0.5144 N   0  0  0  0  0  0  0  0  0  0  0  0
   -0.8204   -1.6074    0.0317 C   0  0  0  0  0  0  0  0  0  0  0  0
   -0.4511   -0.9169    0.9767 O   0  0  0  0  0  0  0  0  0  0  0  0
    0.0359   -2.5767   -0.6357 C   0  0  0  0  0  0  0  0  0  0  0  0
   -0.3488   -3.6122   -1.4836 C   0  0  0  0  0  0  0  0  0  0  0  0
    0.7824   -4.2616   -1.9195 N   0  0  0  0  0  0  0  0  0  0  0  0
    1.8868   -3.6647   -1.3857 C   0  0  0  0  0  0  0  0  0  0  0  0
    3.1643   -4.0096   -1.6338 N   0  0  0  0  0  0  0  0  0  0  0  0
    4.0161   -3.1895   -0.9593 C   0  0  0  0  0  0  0  0  0  0  0  0
    3.6457   -2.1443   -0.1000 C   0  0  0  0  0  0  0  0  0  0  0  0
    2.3401   -1.8579    0.1147 N   0  0  0  0  0  0  0  0  0  0  0  0
    1.4564   -2.6346   -0.5591 C   0  0  0  0  0  0  0  0  0  0  0  0
    4.6800   -1.2534    0.5860 C   0  0  0  0  0  0  0  0  0  0  0  0
    4.7965    0.1454   -0.0085 C   0  0  0  0  0  0  0  0  0  0  0  0
    3.7221    1.1080    0.5209 C   0  0  0  0  0  0  0  0  0  0  0  0
    3.7377    2.4231   -0.2510 C   0  0  0  0  0  0  0  0  0  0  0  0
    2.7120    3.7095    0.5368 S   0  0  0  0  0  0  0  0  0  0  0  0
    1.0406    3.0195    0.2644 C   0  0  0  0  0  0  0  0  0  0  0  0
    0.0187    4.0812    0.6838 C   0  0  0  0  0  0  0  0  0  0  0  0
   -1.4559    3.6993    0.4517 C   0  0  0  0  0  0  0  0  0  0  0  0
   -2.3104    4.7889    0.9131 C   0  0  0  0  0  0  0  0  0  0  0  0
   -2.9963    5.6491    1.2816 N   0  0  0  0  0  0  0  0  0  0  0  0
   -1.8402    3.2244   -0.9738 C   0  0  0  0  0  0  0  0  0  0  0  0
   -2.1908    1.9466   -0.3889 N   0  0  0  0  0  0  0  0  0  0  0  0
   -1.9390    2.3230    0.9843 C   0  0  0  0  0  0  0  0  0  0  0  0
   -2.6139    0.8032   -1.0026 C   0  0  0  0  0  0  0  0  0  0  0  0
   -2.6704    0.7190   -2.2317 O   0  0  0  0  0  0  0  0  0  0  0  0
    5.9317   -1.8846    1.1839 C   0  0  0  0  0  0  0  0  0  0  0  0
    4.8479   -1.3983    2.0925 C   0  0  0  0  0  0  0  0  0  0  0  0
   -4.4027   -2.0767   -1.8842 H   0  0  0  0  0  0  0  0  0  0  0  0
   -6.0223   -1.5370   -1.4490 H   0  0  0  0  0  0  0  0  0  0  0  0
   -4.9152   -0.4151   -2.2282 H   0  0  0  0  0  0  0  0  0  0  0  0
   -5.2478    1.2580   -0.3277 H   0  0  0  0  0  0  0  0  0  0  0  0
   -6.3843    0.1385    0.4269 H   0  0  0  0  0  0  0  0  0  0  0  0
   -5.0110    0.7549    1.3541 H   0  0  0  0  0  0  0  0  0  0  0  0
   -5.7649   -2.2103    0.9420 H   0  0  0  0  0  0  0  0  0  0  0  0
   -4.3661   -1.6859    1.8880 H   0  0  0  0  0  0  0  0  0  0  0  0
   -4.1621   -2.8516    0.5701 H   0  0  0  0  0  0  0  0  0  0  0  0
   -2.7021   -0.1351    0.9476 H   0  0  0  0  0  0  0  0  0  0  0  0
   -2.2683   -1.9100   -1.4051 H   0  0  0  0  0  0  0  0  0  0  0  0
   -1.3229   -3.9489   -1.8125 H   0  0  0  0  0  0  0  0  0  0  0  0
    0.8203   -5.0481   -2.5524 H   0  0  0  0  0  0  0  0  0  0  0  0
    5.0671   -3.3983   -1.1382 H   0  0  0  0  0  0  0  0  0  0  0  0
    4.7312    0.0759   -1.1019 H   0  0  0  0  0  0  0  0  0  0  0  0
    5.7857    0.5670    0.2111 H   0  0  0  0  0  0  0  0  0  0  0  0
    2.7311    0.6519    0.4413 H   0  0  0  0  0  0  0  0  0  0  0  0
    3.9031    1.2911    1.5870 H   0  0  0  0  0  0  0  0  0  0  0  0
    4.7588    2.8174   -0.2920 H   0  0  0  0  0  0  0  0  0  0  0  0
    3.4048    2.2772   -1.2840 H   0  0  0  0  0  0  0  0  0  0  0  0
    0.9277    2.1120    0.8621 H   0  0  0  0  0  0  0  0  0  0  0  0
    0.9373    2.7619   -0.7922 H   0  0  0  0  0  0  0  0  0  0  0  0
    0.2249    5.0115    0.1351 H   0  0  0  0  0  0  0  0  0  0  0  0
    0.1610    4.3038    1.7512 H   0  0  0  0  0  0  0  0  0  0  0  0
   -2.7009    3.7180   -1.4384 H   0  0  0  0  0  0  0  0  0  0  0  0
   -1.0339    3.1589   -1.7084 H   0  0  0  0  0  0  0  0  0  0  0  0
   -2.8506    2.3284    1.5913 H   0  0  0  0  0  0  0  0  0  0  0  0
   -1.1869    1.7051    1.4795 H   0  0  0  0  0  0  0  0  0  0  0  0
    6.8605   -1.3246    1.1636 H   0  0  0  0  0  0  0  0  0  0  0  0
    6.0785   -2.9577    1.1276 H   0  0  0  0  0  0  0  0  0  0  0  0
    4.2361   -2.1331    2.6063 H   0  0  0  0  0  0  0  0  0  0  0  0
    5.0468   -0.5147    2.6882 H   0  0  0  0  0  0  0  0  0  0  0  0
  1  2  1  0
  2  3  1  0
  2  4  1  0
  2  5  1  0
  5  6  1  0
  6  7  1  0
  7  8  2  0
  7  9  1  0
  9 10  2  0
 10 11  1  0
 11 12  1  0
 12 13  2  0
 13 14  1  0
 14 15  2  0
 15 16  1  0
 16 17  2  0
 15 18  1  0
 18 19  1  0
 19 20  1  0
 20 21  1  0
 21 22  1  0
 22 23  1  0
 23 24  1  0
 24 25  1  0
 25 26  1  0
 26 27  3  0
 25 28  1  0
 28 29  1  0
 29 30  1  0
 29 31  1  0
 31 32  2  0
 18 33  1  0
 33 34  1  0
 31  5  1  0
 17  9  1  0
 34 18  1  0
 17 12  1  0
 30 25  1  0
  1 35  1  0
  1 36  1  0
  1 37  1  0
  3 38  1  0
  3 39  1  0
  3 40  1  0
  4 41  1  0
  4 42  1  0
  4 43  1  0
  5 44  1  1
  6 45  1  0
 10 46  1  0
 11 47  1  0
 14 48  1  0
 19 49  1  0
 19 50  1  0
 20 51  1  0
 20 52  1  0
 21 53  1  0
 21 54  1  0
 23 55  1  0
 23 56  1  0
 24 57  1  0
 24 58  1  0
 28 59  1  0
 28 60  1  0
 30 61  1  0
 30 62  1  0
 33 63  1  0
 33 64  1  0
 34 65  1  0
 34 66  1  0
M  END
>  <candidate_id>  (42) 
CAND_5fdf8771a8

>  <source_generator>  (42) 
v5_3_model_guided_macrocycle

>  <parent_mol_id>  (42) 
JAK2_1a53985c87

>  <canonical_smiles>  (42) 
CC(C)(C)[C@H]1NC(=O)c2c[nH]c3ncc(nc23)C2(CCCSCCC3(C#N)CN(C3)C1=O)CC2

>  <inchikey>  (42) 
IAHQBZMCPQJZNV-IBGZPJMESA-N

>  <valid_rdkit>  (42) 
True

>  <unique_flag>  (42) 
True

>  <novel_flag>  (42) 
True

>  <mw>  (42) 
480.638

>  <logp>  (42) 
3.4033

>  <tpsa>  (42) 
114.77

>  <hbd>  (42) 
2

>  <hba>  (42) 
6

>  <rotatable_bonds>  (42) 
0

>  <qed>  (42) 
0.5972

>  <sa_score>  (42) 
4.376

>  <murcko_scaffold>  (42) 
O=C1NCC(=O)N2CC(CCSCCCC3(CC3)c3cnc4[nH]cc1c4n3)C2

>  <max_ring_size>  (42) 
18

>  <has_macrocycle_12_20>  (42) 
True

>  <has_constrained_ring_8_11>  (42) 
False

>  <passes_basic_filters>  (42) 
True

>  <generation_notes>  (42) 
v5_3_model_guided_anchor_pair=15-24;anchor_scores=0.691,0.691;linker_length=6;target_ring=17;linker_prob=0.248;chemotype=thioether

$$$$
CAND_e6c0627bb9
     RDKit          3D

 65 69  0  0  0  0  0  0  0  0999 V2000
   -4.4004   -2.0563    1.9350 C   0  0  0  0  0  0  0  0  0  0  0  0
   -4.4609   -1.0726    0.7458 C   0  0  0  0  0  0  0  0  0  0  0  0
   -5.3960    0.0895    1.1381 C   0  0  0  0  0  0  0  0  0  0  0  0
   -5.0778   -1.8133   -0.4551 C   0  0  0  0  0  0  0  0  0  0  0  0
   -3.0307   -0.5173    0.4767 C   0  0  1  0  0  0  0  0  0  0  0  0
   -2.0747   -1.5493    0.0738 N   0  0  0  0  0  0  0  0  0  0  0  0
   -0.7408   -1.4591    0.4181 C   0  0  0  0  0  0  0  0  0  0  0  0
   -0.3340   -0.6141    1.2095 O   0  0  0  0  0  0  0  0  0  0  0  0
    0.1382   -2.3907   -0.2768 C   0  0  0  0  0  0  0  0  0  0  0  0
   -0.2278   -3.5409   -0.9723 C   0  0  0  0  0  0  0  0  0  0  0  0
    0.9036   -4.1043   -1.5119 N   0  0  0  0  0  0  0  0  0  0  0  0
    1.9902   -3.3470   -1.1883 C   0  0  0  0  0  0  0  0  0  0  0  0
    3.2543   -3.5856   -1.5839 N   0  0  0  0  0  0  0  0  0  0  0  0
    4.0924   -2.6314   -1.0982 C   0  0  0  0  0  0  0  0  0  0  0  0
    3.7256   -1.5538   -0.2786 C   0  0  0  0  0  0  0  0  0  0  0  0
    2.4317   -1.3679    0.0828 N   0  0  0  0  0  0  0  0  0  0  0  0
    1.5567   -2.2902   -0.3963 C   0  0  0  0  0  0  0  0  0  0  0  0
    4.7476   -0.5247    0.2069 C   0  0  0  0  0  0  0  0  0  0  0  0
    4.6142    0.8443   -0.4445 C   0  0  0  0  0  0  0  0  0  0  0  0
    3.5465    1.7132    0.2282 C   0  0  0  0  0  0  0  0  0  0  0  0
    3.2433    2.8682   -0.5569 O   0  0  0  0  0  0  0  0  0  0  0  0
    2.3073    2.6120   -1.5925 C   0  0  0  0  0  0  0  0  0  0  0  0
    1.0617    3.3232   -1.3310 N   0  0  0  0  0  0  0  0  0  0  0  0
    0.3235    2.7095   -0.2151 C   0  0  0  0  0  0  0  0  0  0  0  0
   -1.1069    3.2626   -0.0786 C   0  0  0  0  0  0  0  0  0  0  0  0
   -1.1305    4.6693    0.2634 C   0  0  0  0  0  0  0  0  0  0  0  0
   -1.1618    5.7926    0.5545 N   0  0  0  0  0  0  0  0  0  0  0  0
   -2.0852    2.8538   -1.2092 C   0  0  0  0  0  0  0  0  0  0  0  0
   -2.4982    1.7671   -0.3343 N   0  0  0  0  0  0  0  0  0  0  0  0
   -1.9798    2.3906    0.8660 C   0  0  0  0  0  0  0  0  0  0  0  0
   -2.9604    0.5257   -0.6615 C   0  0  0  0  0  0  0  0  0  0  0  0
   -3.2178    0.2250   -1.8298 O   0  0  0  0  0  0  0  0  0  0  0  0
    6.1381   -0.9843    0.6293 C   0  0  0  0  0  0  0  0  0  0  0  0
    5.1510   -0.5737    1.6751 C   0  0  0  0  0  0  0  0  0  0  0  0
   -3.7855   -2.9322    1.7008 H   0  0  0  0  0  0  0  0  0  0  0  0
   -5.4000   -2.4192    2.2005 H   0  0  0  0  0  0  0  0  0  0  0  0
   -3.9765   -1.5767    2.8245 H   0  0  0  0  0  0  0  0  0  0  0  0
   -5.5276    0.7970    0.3123 H   0  0  0  0  0  0  0  0  0  0  0  0
   -4.9991    0.6445    1.9956 H   0  0  0  0  0  0  0  0  0  0  0  0
   -6.3908   -0.2788    1.4138 H   0  0  0  0  0  0  0  0  0  0  0  0
   -5.2318   -1.1496   -1.3109 H   0  0  0  0  0  0  0  0  0  0  0  0
   -6.0603   -2.2248   -0.1943 H   0  0  0  0  0  0  0  0  0  0  0  0
   -4.4554   -2.6526   -0.7811 H   0  0  0  0  0  0  0  0  0  0  0  0
   -2.6695   -0.0653    1.4054 H   0  0  0  0  0  0  0  0  0  0  0  0
   -2.3273   -2.1287   -0.7145 H   0  0  0  0  0  0  0  0  0  0  0  0
   -1.1890   -4.0110   -1.1322 H   0  0  0  0  0  0  0  0  0  0  0  0
    0.9502   -4.9397   -2.0782 H   0  0  0  0  0  0  0  0  0  0  0  0
    5.1282   -2.7570   -1.4012 H   0  0  0  0  0  0  0  0  0  0  0  0
    5.5690    1.3852   -0.4148 H   0  0  0  0  0  0  0  0  0  0  0  0
    4.3950    0.7214   -1.5125 H   0  0  0  0  0  0  0  0  0  0  0  0
    2.6312    1.1601    0.4573 H   0  0  0  0  0  0  0  0  0  0  0  0
    3.9330    2.0772    1.1865 H   0  0  0  0  0  0  0  0  0  0  0  0
    2.7371    3.0183   -2.5140 H   0  0  0  0  0  0  0  0  0  0  0  0
    2.1388    1.5428   -1.7729 H   0  0  0  0  0  0  0  0  0  0  0  0
    1.3395    4.2715   -1.0694 H   0  0  0  0  0  0  0  0  0  0  0  0
    0.8670    2.8650    0.7258 H   0  0  0  0  0  0  0  0  0  0  0  0
    0.2730    1.6256   -0.3805 H   0  0  0  0  0  0  0  0  0  0  0  0
   -1.6277    2.5238   -2.1460 H   0  0  0  0  0  0  0  0  0  0  0  0
   -2.9088    3.5432   -1.4231 H   0  0  0  0  0  0  0  0  0  0  0  0
   -2.7659    2.9068    1.4281 H   0  0  0  0  0  0  0  0  0  0  0  0
   -1.4232    1.7379    1.5412 H   0  0  0  0  0  0  0  0  0  0  0  0
    6.4008   -2.0357    0.5907 H   0  0  0  0  0  0  0  0  0  0  0  0
    6.9826   -0.3275    0.4479 H   0  0  0  0  0  0  0  0  0  0  0  0
    5.3366    0.3538    2.2051 H   0  0  0  0  0  0  0  0  0  0  0  0
    4.7141   -1.3454    2.3014 H   0  0  0  0  0  0  0  0  0  0  0  0
  1  2  1  0
  2  3  1  0
  2  4  1  0
  2  5  1  0
  5  6  1  0
  6  7  1  0
  7  8  2  0
  7  9  1  0
  9 10  2  0
 10 11  1  0
 11 12  1  0
 12 13  2  0
 13 14  1  0
 14 15  2  0
 15 16  1  0
 16 17  2  0
 15 18  1  0
 18 19  1  0
 19 20  1  0
 20 21  1  0
 21 22  1  0
 22 23  1  0
 23 24  1  0
 24 25  1  0
 25 26  1  0
 26 27  3  0
 25 28  1  0
 28 29  1  0
 29 30  1  0
 29 31  1  0
 31 32  2  0
 18 33  1  0
 33 34  1  0
 31  5  1  0
 17  9  1  0
 34 18  1  0
 17 12  1  0
 30 25  1  0
  1 35  1  0
  1 36  1  0
  1 37  1  0
  3 38  1  0
  3 39  1  0
  3 40  1  0
  4 41  1  0
  4 42  1  0
  4 43  1  0
  5 44  1  1
  6 45  1  0
 10 46  1  0
 11 47  1  0
 14 48  1  0
 19 49  1  0
 19 50  1  0
 20 51  1  0
 20 52  1  0
 22 53  1  0
 22 54  1  0
 23 55  1  0
 24 56  1  0
 24 57  1  0
 28 58  1  0
 28 59  1  0
 30 60  1  0
 30 61  1  0
 33 62  1  0
 33 63  1  0
 34 64  1  0
 34 65  1  0
M  END
>  <candidate_id>  (43) 
CAND_e6c0627bb9

>  <source_generator>  (43) 
v5_3_model_guided_macrocycle

>  <parent_mol_id>  (43) 
JAK2_1a53985c87

>  <canonical_smiles>  (43) 
CC(C)(C)[C@H]1NC(=O)c2c[nH]c3ncc(nc23)C2(CCOCNCC3(C#N)CN(C3)C1=O)CC2

>  <inchikey>  (43) 
MUCGFCOGPOVGDH-SFHVURJKSA-N

>  <valid_rdkit>  (43) 
True

>  <unique_flag>  (43) 
True

>  <novel_flag>  (43) 
True

>  <mw>  (43) 
465.558

>  <logp>  (43) 
1.4536

>  <tpsa>  (43) 
136.03

>  <hbd>  (43) 
3

>  <hba>  (43) 
7

>  <rotatable_bonds>  (43) 
0

>  <qed>  (43) 
0.5357

>  <sa_score>  (43) 
4.292

>  <murcko_scaffold>  (43) 
O=C1NCC(=O)N2CC(CNCOCCC3(CC3)c3cnc4[nH]cc1c4n3)C2

>  <max_ring_size>  (43) 
18

>  <has_macrocycle_12_20>  (43) 
True

>  <has_constrained_ring_8_11>  (43) 
False

>  <passes_basic_filters>  (43) 
True

>  <generation_notes>  (43) 
v5_3_model_guided_anchor_pair=15-24;anchor_scores=0.691,0.691;linker_length=6;target_ring=17;linker_prob=0.248;chemotype=oxa_aza

$$$$
CAND_7f998a5652
     RDKit          3D

 66 70  0  0  0  0  0  0  0  0999 V2000
   -4.0070   -0.1382    2.6262 C   0  0  0  0  0  0  0  0  0  0  0  0
   -2.8945    0.4291    1.7191 C   0  0  0  0  0  0  0  0  0  0  0  0
   -3.1251    1.9541    1.6071 C   0  0  0  0  0  0  0  0  0  0  0  0
   -1.5431    0.1972    2.4141 C   0  0  0  0  0  0  0  0  0  0  0  0
   -2.9695   -0.2163    0.2950 C   0  0  1  0  0  0  0  0  0  0  0  0
   -2.0555    0.4188   -0.6534 N   0  0  0  0  0  0  0  0  0  0  0  0
   -2.3406    0.4740   -1.9992 C   0  0  0  0  0  0  0  0  0  0  0  0
   -3.3672    0.0068   -2.4803 O   0  0  0  0  0  0  0  0  0  0  0  0
   -1.3237    1.1154   -2.8190 C   0  0  0  0  0  0  0  0  0  0  0  0
   -1.4156    1.2812   -4.1965 C   0  0  0  0  0  0  0  0  0  0  0  0
   -0.2792    1.9054   -4.6429 N   0  0  0  0  0  0  0  0  0  0  0  0
    0.5504    2.1470   -3.5863 C   0  0  0  0  0  0  0  0  0  0  0  0
    1.7592    2.7345   -3.6561 N   0  0  0  0  0  0  0  0  0  0  0  0
    2.3243    2.8097   -2.4243 C   0  0  0  0  0  0  0  0  0  0  0  0
    1.7486    2.3527   -1.2287 C   0  0  0  0  0  0  0  0  0  0  0  0
    0.5177    1.7656   -1.2122 N   0  0  0  0  0  0  0  0  0  0  0  0
   -0.0721    1.6727   -2.4370 C   0  0  0  0  0  0  0  0  0  0  0  0
    2.5044    2.4671    0.0938 C   0  0  0  0  0  0  0  0  0  0  0  0
    3.4148    1.2907    0.4268 C   0  0  0  0  0  0  0  0  0  0  0  0
    2.6153    0.0018    0.5955 C   0  0  0  0  0  0  0  0  0  0  0  0
    3.4239   -1.1467    1.1820 C   0  0  0  0  0  0  0  0  0  0  0  0
    2.5312   -2.2383    1.4112 O   0  0  0  0  0  0  0  0  0  0  0  0
    2.5343   -3.2156    0.3710 C   0  0  0  0  0  0  0  0  0  0  0  0
    1.2282   -4.0084    0.4746 C   0  0  0  0  0  0  0  0  0  0  0  0
    0.1093   -3.3797   -0.3774 C   0  0  0  0  0  0  0  0  0  0  0  0
    0.3478   -3.6070   -1.7965 C   0  0  0  0  0  0  0  0  0  0  0  0
    0.5860   -3.7898   -2.9172 N   0  0  0  0  0  0  0  0  0  0  0  0
   -0.2763   -1.9155   -0.0501 C   0  0  0  0  0  0  0  0  0  0  0  0
   -1.6394   -2.3613    0.0955 N   0  0  0  0  0  0  0  0  0  0  0  0
   -1.3183   -3.7787    0.0751 C   0  0  0  0  0  0  0  0  0  0  0  0
   -2.8555   -1.7698    0.2918 C   0  0  0  0  0  0  0  0  0  0  0  0
   -3.8321   -2.4690    0.5838 O   0  0  0  0  0  0  0  0  0  0  0  0
    2.9286    3.8478    0.5706 C   0  0  0  0  0  0  0  0  0  0  0  0
    1.7952    3.1475    1.2558 C   0  0  0  0  0  0  0  0  0  0  0  0
   -3.8465   -1.1975    2.8516 H   0  0  0  0  0  0  0  0  0  0  0  0
   -4.0418    0.3898    3.5864 H   0  0  0  0  0  0  0  0  0  0  0  0
   -4.9917   -0.0351    2.1571 H   0  0  0  0  0  0  0  0  0  0  0  0
   -3.1615    2.4231    2.5972 H   0  0  0  0  0  0  0  0  0  0  0  0
   -4.0728    2.1733    1.1023 H   0  0  0  0  0  0  0  0  0  0  0  0
   -2.3227    2.4468    1.0473 H   0  0  0  0  0  0  0  0  0  0  0  0
   -1.5140    0.6967    3.3898 H   0  0  0  0  0  0  0  0  0  0  0  0
   -0.7105    0.5944    1.8257 H   0  0  0  0  0  0  0  0  0  0  0  0
   -1.3628   -0.8668    2.5961 H   0  0  0  0  0  0  0  0  0  0  0  0
   -3.9806   -0.0225   -0.0930 H   0  0  0  0  0  0  0  0  0  0  0  0
   -1.1803    0.8260   -0.3347 H   0  0  0  0  0  0  0  0  0  0  0  0
   -2.2000    0.9950   -4.8868 H   0  0  0  0  0  0  0  0  0  0  0  0
   -0.0633    2.1480   -5.5996 H   0  0  0  0  0  0  0  0  0  0  0  0
    3.3098    3.2678   -2.4113 H   0  0  0  0  0  0  0  0  0  0  0  0
    4.1630    1.1670   -0.3655 H   0  0  0  0  0  0  0  0  0  0  0  0
    3.9688    1.4988    1.3509 H   0  0  0  0  0  0  0  0  0  0  0  0
    2.2021   -0.3108   -0.3702 H   0  0  0  0  0  0  0  0  0  0  0  0
    1.7487    0.1867    1.2426 H   0  0  0  0  0  0  0  0  0  0  0  0
    3.8309   -0.8539    2.1554 H   0  0  0  0  0  0  0  0  0  0  0  0
    4.2621   -1.4371    0.5385 H   0  0  0  0  0  0  0  0  0  0  0  0
    2.6568   -2.7476   -0.6115 H   0  0  0  0  0  0  0  0  0  0  0  0
    3.3859   -3.8801    0.5519 H   0  0  0  0  0  0  0  0  0  0  0  0
    1.4000   -5.0394    0.1395 H   0  0  0  0  0  0  0  0  0  0  0  0
    0.9166   -4.0614    1.5256 H   0  0  0  0  0  0  0  0  0  0  0  0
   -0.1003   -1.2072   -0.8609 H   0  0  0  0  0  0  0  0  0  0  0  0
    0.1225   -1.5194    0.8840 H   0  0  0  0  0  0  0  0  0  0  0  0
   -1.9162   -4.3495   -0.6422 H   0  0  0  0  0  0  0  0  0  0  0  0
   -1.4037   -4.2365    1.0659 H   0  0  0  0  0  0  0  0  0  0  0  0
    2.6834    4.7175   -0.0302 H   0  0  0  0  0  0  0  0  0  0  0  0
    3.8622    3.9492    1.1136 H   0  0  0  0  0  0  0  0  0  0  0  0
    0.7912    3.5289    1.0984 H   0  0  0  0  0  0  0  0  0  0  0  0
    1.9602    2.7711    2.2593 H   0  0  0  0  0  0  0  0  0  0  0  0
  1  2  1  0
  2  3  1  0
  2  4  1  0
  2  5  1  0
  5  6  1  0
  6  7  1  0
  7  8  2  0
  7  9  1  0
  9 10  2  0
 10 11  1  0
 11 12  1  0
 12 13  2  0
 13 14  1  0
 14 15  2  0
 15 16  1  0
 16 17  2  0
 15 18  1  0
 18 19  1  0
 19 20  1  0
 20 21  1  0
 21 22  1  0
 22 23  1  0
 23 24  1  0
 24 25  1  0
 25 26  1  0
 26 27  3  0
 25 28  1  0
 28 29  1  0
 29 30  1  0
 29 31  1  0
 31 32  2  0
 18 33  1  0
 33 34  1  0
 31  5  1  0
 17  9  1  0
 34 18  1  0
 17 12  1  0
 30 25  1  0
  1 35  1  0
  1 36  1  0
  1 37  1  0
  3 38  1  0
  3 39  1  0
  3 40  1  0
  4 41  1  0
  4 42  1  0
  4 43  1  0
  5 44  1  6
  6 45  1  0
 10 46  1  0
 11 47  1  0
 14 48  1  0
 19 49  1  0
 19 50  1  0
 20 51  1  0
 20 52  1  0
 21 53  1  0
 21 54  1  0
 23 55  1  0
 23 56  1  0
 24 57  1  0
 24 58  1  0
 28 59  1  0
 28 60  1  0
 30 61  1  0
 30 62  1  0
 33 63  1  0
 33 64  1  0
 34 65  1  0
 34 66  1  0
M  END
>  <candidate_id>  (44) 
CAND_7f998a5652

>  <source_generator>  (44) 
v5_3_model_guided_macrocycle

>  <parent_mol_id>  (44) 
JAK2_1a53985c87

>  <canonical_smiles>  (44) 
CC(C)(C)[C@H]1NC(=O)c2c[nH]c3ncc(nc23)C2(CCCOCCC3(C#N)CN(C3)C1=O)CC2

>  <inchikey>  (44) 
JWVNLZBTGGODGF-IBGZPJMESA-N

>  <valid_rdkit>  (44) 
True

>  <unique_flag>  (44) 
True

>  <novel_flag>  (44) 
True

>  <mw>  (44) 
464.57

>  <logp>  (44) 
2.6867

>  <tpsa>  (44) 
124.0

>  <hbd>  (44) 
2

>  <hba>  (44) 
6

>  <rotatable_bonds>  (44) 
0

>  <qed>  (44) 
0.6177

>  <sa_score>  (44) 
4.287

>  <murcko_scaffold>  (44) 
O=C1NCC(=O)N2CC(CCOCCCC3(CC3)c3cnc4[nH]cc1c4n3)C2

>  <max_ring_size>  (44) 
18

>  <has_macrocycle_12_20>  (44) 
True

>  <has_constrained_ring_8_11>  (44) 
False

>  <passes_basic_filters>  (44) 
True

>  <generation_notes>  (44) 
v5_3_model_guided_anchor_pair=15-24;anchor_scores=0.691,0.691;linker_length=6;target_ring=17;linker_prob=0.248;chemotype=oxa

$$$$
CAND_4e8257bdee
     RDKit          3D

 67 71  0  0  0  0  0  0  0  0999 V2000
    5.6216   -0.5454   -1.7983 C   0  0  0  0  0  0  0  0  0  0  0  0
    4.5802   -1.0063   -0.7559 C   0  0  0  0  0  0  0  0  0  0  0  0
    4.8661   -0.2745    0.5691 C   0  0  0  0  0  0  0  0  0  0  0  0
    4.8019   -2.5216   -0.5374 C   0  0  0  0  0  0  0  0  0  0  0  0
    3.1178   -0.7517   -1.2706 C   0  0  1  0  0  0  0  0  0  0  0  0
    2.1335   -1.3735   -0.3856 N   0  0  0  0  0  0  0  0  0  0  0  0
    0.8956   -1.7739   -0.8412 C   0  0  0  0  0  0  0  0  0  0  0  0
    0.5087   -1.5565   -1.9817 O   0  0  0  0  0  0  0  0  0  0  0  0
    0.0870   -2.4293    0.1744 C   0  0  0  0  0  0  0  0  0  0  0  0
    0.5494   -3.2526    1.1982 C   0  0  0  0  0  0  0  0  0  0  0  0
   -0.5272   -3.6554    1.9503 N   0  0  0  0  0  0  0  0  0  0  0  0
   -1.6641   -3.0820    1.4613 C   0  0  0  0  0  0  0  0  0  0  0  0
   -2.8910   -3.2015    1.9993 N   0  0  0  0  0  0  0  0  0  0  0  0
   -3.7938   -2.4726    1.2889 C   0  0  0  0  0  0  0  0  0  0  0  0
   -3.5215   -1.7157    0.1391 C   0  0  0  0  0  0  0  0  0  0  0  0
   -2.2601   -1.6493   -0.3611 N   0  0  0  0  0  0  0  0  0  0  0  0
   -1.3242   -2.3431    0.3343 C   0  0  0  0  0  0  0  0  0  0  0  0
   -4.5920   -0.8684   -0.5572 C   0  0  0  0  0  0  0  0  0  0  0  0
   -4.2238    0.5993   -0.7628 C   0  0  0  0  0  0  0  0  0  0  0  0
   -3.6911    1.2833    0.5007 C   0  0  0  0  0  0  0  0  0  0  0  0
   -3.3198    2.7407    0.2126 C   0  0  0  0  0  0  0  0  0  0  0  0
   -2.5910    3.3889    1.3058 N   0  0  0  0  0  0  0  0  0  0  0  0
   -1.2128    2.9309    1.4986 C   0  0  0  0  0  0  0  0  0  0  0  0
   -0.2915    3.2727    0.3192 C   0  0  0  0  0  0  0  0  0  0  0  0
    1.1705    2.8589    0.5697 C   0  0  0  0  0  0  0  0  0  0  0  0
    1.7607    3.5435    1.7060 C   0  0  0  0  0  0  0  0  0  0  0  0
    2.2305    4.0663    2.6290 N   0  0  0  0  0  0  0  0  0  0  0  0
    2.0213    2.9749   -0.7155 C   0  0  0  0  0  0  0  0  0  0  0  0
    2.1897    1.5325   -0.6740 N   0  0  0  0  0  0  0  0  0  0  0  0
    1.4527    1.3337    0.5496 C   0  0  0  0  0  0  0  0  0  0  0  0
    2.8504    0.7512   -1.5796 C   0  0  0  0  0  0  0  0  0  0  0  0
    3.3581    1.2795   -2.5756 O   0  0  0  0  0  0  0  0  0  0  0  0
   -6.0687   -1.2248   -0.4714 C   0  0  0  0  0  0  0  0  0  0  0  0
   -5.3116   -1.5297   -1.7259 C   0  0  0  0  0  0  0  0  0  0  0  0
    5.6470    0.5442   -1.8977 H   0  0  0  0  0  0  0  0  0  0  0  0
    6.6329   -0.8567   -1.5107 H   0  0  0  0  0  0  0  0  0  0  0  0
    5.4120   -0.9753   -2.7840 H   0  0  0  0  0  0  0  0  0  0  0  0
    5.8863   -0.4780    0.9154 H   0  0  0  0  0  0  0  0  0  0  0  0
    4.1859   -0.5918    1.3658 H   0  0  0  0  0  0  0  0  0  0  0  0
    4.7737    0.8109    0.4587 H   0  0  0  0  0  0  0  0  0  0  0  0
    4.5831   -3.0861   -1.4508 H   0  0  0  0  0  0  0  0  0  0  0  0
    5.8404   -2.7335   -0.2574 H   0  0  0  0  0  0  0  0  0  0  0  0
    4.1691   -2.9175    0.2639 H   0  0  0  0  0  0  0  0  0  0  0  0
    3.0100   -1.2575   -2.2411 H   0  0  0  0  0  0  0  0  0  0  0  0
    2.3576   -1.5050    0.5892 H   0  0  0  0  0  0  0  0  0  0  0  0
    1.5439   -3.6035    1.4417 H   0  0  0  0  0  0  0  0  0  0  0  0
   -0.5076   -4.2604    2.7595 H   0  0  0  0  0  0  0  0  0  0  0  0
   -4.7981   -2.5020    1.7004 H   0  0  0  0  0  0  0  0  0  0  0  0
   -3.4634    0.6554   -1.5531 H   0  0  0  0  0  0  0  0  0  0  0  0
   -5.0935    1.1579   -1.1323 H   0  0  0  0  0  0  0  0  0  0  0  0
   -2.8135    0.7413    0.8632 H   0  0  0  0  0  0  0  0  0  0  0  0
   -4.4422    1.2364    1.2987 H   0  0  0  0  0  0  0  0  0  0  0  0
   -2.7704    2.8283   -0.7297 H   0  0  0  0  0  0  0  0  0  0  0  0
   -4.2474    3.3057    0.0581 H   0  0  0  0  0  0  0  0  0  0  0  0
   -3.1116    3.2612    2.1745 H   0  0  0  0  0  0  0  0  0  0  0  0
   -0.8401    3.4327    2.3989 H   0  0  0  0  0  0  0  0  0  0  0  0
   -1.1770    1.8603    1.7238 H   0  0  0  0  0  0  0  0  0  0  0  0
   -0.6476    2.7677   -0.5867 H   0  0  0  0  0  0  0  0  0  0  0  0
   -0.3400    4.3511    0.1162 H   0  0  0  0  0  0  0  0  0  0  0  0
    2.9733    3.5092   -0.6264 H   0  0  0  0  0  0  0  0  0  0  0  0
    1.4994    3.3167   -1.6150 H   0  0  0  0  0  0  0  0  0  0  0  0
    2.0694    0.9456    1.3657 H   0  0  0  0  0  0  0  0  0  0  0  0
    0.5633    0.7104    0.4303 H   0  0  0  0  0  0  0  0  0  0  0  0
   -6.4027   -2.0724    0.1149 H   0  0  0  0  0  0  0  0  0  0  0  0
   -6.7986   -0.4223   -0.5052 H   0  0  0  0  0  0  0  0  0  0  0  0
   -5.0863   -2.5670   -1.9519 H   0  0  0  0  0  0  0  0  0  0  0  0
   -5.5189   -0.9346   -2.6089 H   0  0  0  0  0  0  0  0  0  0  0  0
  1  2  1  0
  2  3  1  0
  2  4  1  0
  2  5  1  0
  5  6  1  0
  6  7  1  0
  7  8  2  0
  7  9  1  0
  9 10  2  0
 10 11  1  0
 11 12  1  0
 12 13  2  0
 13 14  1  0
 14 15  2  0
 15 16  1  0
 16 17  2  0
 15 18  1  0
 18 19  1  0
 19 20  1  0
 20 21  1  0
 21 22  1  0
 22 23  1  0
 23 24  1  0
 24 25  1  0
 25 26  1  0
 26 27  3  0
 25 28  1  0
 28 29  1  0
 29 30  1  0
 29 31  1  0
 31 32  2  0
 18 33  1  0
 33 34  1  0
 31  5  1  0
 17  9  1  0
 34 18  1  0
 17 12  1  0
 30 25  1  0
  1 35  1  0
  1 36  1  0
  1 37  1  0
  3 38  1  0
  3 39  1  0
  3 40  1  0
  4 41  1  0
  4 42  1  0
  4 43  1  0
  5 44  1  6
  6 45  1  0
 10 46  1  0
 11 47  1  0
 14 48  1  0
 19 49  1  0
 19 50  1  0
 20 51  1  0
 20 52  1  0
 21 53  1  0
 21 54  1  0
 22 55  1  0
 23 56  1  0
 23 57  1  0
 24 58  1  0
 24 59  1  0
 28 60  1  0
 28 61  1  0
 30 62  1  0
 30 63  1  0
 33 64  1  0
 33 65  1  0
 34 66  1  0
 34 67  1  0
M  END
>  <candidate_id>  (45) 
CAND_4e8257bdee

>  <source_generator>  (45) 
v5_3_model_guided_macrocycle

>  <parent_mol_id>  (45) 
JAK2_1a53985c87

>  <canonical_smiles>  (45) 
CC(C)(C)[C@H]1NC(=O)c2c[nH]c3ncc(nc23)C2(CCCNCCC3(C#N)CN(C3)C1=O)CC2

>  <inchikey>  (45) 
KWHUAFLBPGKMEV-IBGZPJMESA-N

>  <valid_rdkit>  (45) 
True

>  <unique_flag>  (45) 
True

>  <novel_flag>  (45) 
True

>  <mw>  (45) 
463.586

>  <logp>  (45) 
2.2597

>  <tpsa>  (45) 
126.8

>  <hbd>  (45) 
3

>  <hba>  (45) 
6

>  <rotatable_bonds>  (45) 
0

>  <qed>  (45) 
0.55

>  <sa_score>  (45) 
4.281

>  <murcko_scaffold>  (45) 
O=C1NCC(=O)N2CC(CCNCCCC3(CC3)c3cnc4[nH]cc1c4n3)C2

>  <max_ring_size>  (45) 
18

>  <has_macrocycle_12_20>  (45) 
True

>  <has_constrained_ring_8_11>  (45) 
False

>  <passes_basic_filters>  (45) 
True

>  <generation_notes>  (45) 
v5_3_model_guided_anchor_pair=15-24;anchor_scores=0.691,0.691;linker_length=6;target_ring=17;linker_prob=0.248;chemotype=aza

$$$$
CAND_661d99e302
     RDKit          3D

 57 61  0  0  0  0  0  0  0  0999 V2000
   -3.4272   -1.8836   -2.0605 C   0  0  0  0  0  0  0  0  0  0  0  0
   -2.6426   -0.5602   -2.2189 C   0  0  0  0  0  0  0  0  0  0  0  0
   -1.4825   -0.8189   -3.1998 C   0  0  0  0  0  0  0  0  0  0  0  0
   -3.6078    0.4731   -2.8341 C   0  0  0  0  0  0  0  0  0  0  0  0
   -2.1633   -0.0794   -0.8161 C   0  0  1  0  0  0  0  0  0  0  0  0
   -1.2019   -1.0029   -0.2122 N   0  0  0  0  0  0  0  0  0  0  0  0
   -1.4814   -1.8057    0.8640 C   0  0  0  0  0  0  0  0  0  0  0  0
   -2.6169   -2.0125    1.2765 O   0  0  0  0  0  0  0  0  0  0  0  0
   -0.2982   -2.3266    1.5322 C   0  0  0  0  0  0  0  0  0  0  0  0
   -0.2801   -3.2799    2.5419 C   0  0  0  0  0  0  0  0  0  0  0  0
    1.0194   -3.4520    2.9579 N   0  0  0  0  0  0  0  0  0  0  0  0
    1.8372   -2.6072    2.2614 C   0  0  0  0  0  0  0  0  0  0  0  0
    3.1631   -2.4545    2.4359 N   0  0  0  0  0  0  0  0  0  0  0  0
    3.6517   -1.5154    1.5791 C   0  0  0  0  0  0  0  0  0  0  0  0
    2.9068   -0.7949    0.6302 C   0  0  0  0  0  0  0  0  0  0  0  0
    1.5709   -0.9928    0.5028 N   0  0  0  0  0  0  0  0  0  0  0  0
    1.0500   -1.9187    1.3506 C   0  0  0  0  0  0  0  0  0  0  0  0
    3.5644    0.2366   -0.2845 C   0  0  0  0  0  0  0  0  0  0  0  0
    3.4909   -0.0064   -1.7909 C   0  0  0  0  0  0  0  0  0  0  0  0
    4.7921   -0.2034   -1.0835 C   0  0  0  0  0  0  0  0  0  0  0  0
    3.5320    1.6687    0.2254 C   0  0  0  0  0  0  0  0  0  0  0  0
    2.0437    2.5632   -0.3142 S   0  0  0  0  0  0  0  0  0  0  0  0
    1.0567    2.5043    1.2029 C   0  0  0  0  0  0  0  0  0  0  0  0
   -0.4019    2.9061    0.9560 C   0  0  0  0  0  0  0  0  0  0  0  0
   -1.2658    2.8812    2.2435 C   0  0  0  0  0  0  0  0  0  0  0  0
   -2.2517    3.9355    2.3455 C   0  0  0  0  0  0  0  0  0  0  0  0
   -3.0380    4.7816    2.4528 N   0  0  0  0  0  0  0  0  0  0  0  0
   -1.8117    1.5135    1.7915 C   0  0  0  0  0  0  0  0  0  0  0  0
   -1.2298    1.7948    0.4972 N   0  0  0  0  0  0  0  0  0  0  0  0
   -1.4318    1.2896   -0.7634 C   0  0  0  0  0  0  0  0  0  0  0  0
   -1.0018    1.8674   -1.7584 O   0  0  0  0  0  0  0  0  0  0  0  0
   -3.8458   -2.2129   -3.0187 H   0  0  0  0  0  0  0  0  0  0  0  0
   -2.7865   -2.6924   -1.6932 H   0  0  0  0  0  0  0  0  0  0  0  0
   -4.2608   -1.7681   -1.3587 H   0  0  0  0  0  0  0  0  0  0  0  0
   -0.9121    0.0877   -3.4180 H   0  0  0  0  0  0  0  0  0  0  0  0
   -1.8604   -1.1949   -4.1580 H   0  0  0  0  0  0  0  0  0  0  0  0
   -0.7847   -1.5687   -2.8117 H   0  0  0  0  0  0  0  0  0  0  0  0
   -4.0356    0.1029   -3.7731 H   0  0  0  0  0  0  0  0  0  0  0  0
   -3.1086    1.4194   -3.0621 H   0  0  0  0  0  0  0  0  0  0  0  0
   -4.4399    0.6883   -2.1542 H   0  0  0  0  0  0  0  0  0  0  0  0
   -3.0393   -0.0016   -0.1597 H   0  0  0  0  0  0  0  0  0  0  0  0
   -0.2237   -0.8882   -0.4782 H   0  0  0  0  0  0  0  0  0  0  0  0
   -1.0880   -3.8372    2.9999 H   0  0  0  0  0  0  0  0  0  0  0  0
    1.3388   -4.0764    3.6854 H   0  0  0  0  0  0  0  0  0  0  0  0
    4.7213   -1.3446    1.6717 H   0  0  0  0  0  0  0  0  0  0  0  0
    3.3975    0.8456   -2.4564 H   0  0  0  0  0  0  0  0  0  0  0  0
    2.9568   -0.8823   -2.1448 H   0  0  0  0  0  0  0  0  0  0  0  0
    5.5802    0.5159   -1.2796 H   0  0  0  0  0  0  0  0  0  0  0  0
    5.1548   -1.2223   -0.9972 H   0  0  0  0  0  0  0  0  0  0  0  0
    4.3869    2.2244   -0.1761 H   0  0  0  0  0  0  0  0  0  0  0  0
    3.6309    1.7048    1.3161 H   0  0  0  0  0  0  0  0  0  0  0  0
    1.1173    1.5078    1.6515 H   0  0  0  0  0  0  0  0  0  0  0  0
    1.5095    3.2102    1.9078 H   0  0  0  0  0  0  0  0  0  0  0  0
   -0.5221    3.8139    0.3519 H   0  0  0  0  0  0  0  0  0  0  0  0
   -0.6769    2.8046    3.1671 H   0  0  0  0  0  0  0  0  0  0  0  0
   -1.3547    0.6577    2.2952 H   0  0  0  0  0  0  0  0  0  0  0  0
   -2.8996    1.4055    1.7820 H   0  0  0  0  0  0  0  0  0  0  0  0
  1  2  1  0
  2  3  1  0
  2  4  1  0
  2  5  1  0
  5  6  1  0
  6  7  1  0
  7  8  2  0
  7  9  1  0
  9 10  2  0
 10 11  1  0
 11 12  1  0
 12 13  2  0
 13 14  1  0
 14 15  2  0
 15 16  1  0
 16 17  2  0
 15 18  1  0
 18 19  1  0
 19 20  1  0
 18 21  1  0
 21 22  1  0
 22 23  1  0
 23 24  1  0
 24 25  1  0
 25 26  1  0
 26 27  3  0
 25 28  1  0
 28 29  1  0
 29 30  1  0
 30 31  2  0
 30  5  1  0
 17  9  1  0
 20 18  1  0
 29 24  1  0
 17 12  1  0
  1 32  1  0
  1 33  1  0
  1 34  1  0
  3 35  1  0
  3 36  1  0
  3 37  1  0
  4 38  1  0
  4 39  1  0
  4 40  1  0
  5 41  1  1
  6 42  1  0
 10 43  1  0
 11 44  1  0
 14 45  1  0
 19 46  1  0
 19 47  1  0
 20 48  1  0
 20 49  1  0
 21 50  1  0
 21 51  1  0
 23 52  1  0
 23 53  1  0
 24 54  1  0
 25 55  1  0
 28 56  1  0
 28 57  1  0
M  END
>  <candidate_id>  (46) 
CAND_661d99e302

>  <source_generator>  (46) 
v5_3_model_guided_macrocycle

>  <parent_mol_id>  (46) 
JAK2_1a53985c87

>  <canonical_smiles>  (46) 
CC(C)(C)[C@H]1NC(=O)c2c[nH]c3ncc(nc23)C2(CC2)CSCC2C(C#N)CN2C1=O

>  <inchikey>  (46) 
CFHMOIZBUKZHPX-AJUCZRQESA-N

>  <valid_rdkit>  (46) 
True

>  <unique_flag>  (46) 
True

>  <novel_flag>  (46) 
True

>  <mw>  (46) 
438.557

>  <logp>  (46) 
2.2314

>  <tpsa>  (46) 
114.77

>  <hbd>  (46) 
2

>  <hba>  (46) 
6

>  <rotatable_bonds>  (46) 
0

>  <qed>  (46) 
0.6518

>  <sa_score>  (46) 
4.642

>  <murcko_scaffold>  (46) 
O=C1NCC(=O)N2CCC2CSCC2(CC2)c2cnc3[nH]cc1c3n2

>  <max_ring_size>  (46) 
14

>  <has_macrocycle_12_20>  (46) 
True

>  <has_constrained_ring_8_11>  (46) 
False

>  <passes_basic_filters>  (46) 
True

>  <generation_notes>  (46) 
v5_3_model_guided_anchor_pair=15-23;anchor_scores=0.691,0.079;linker_length=3;target_ring=13;linker_prob=0.353;chemotype=thioether

$$$$
CAND_826c88beb5
     RDKit          3D

 59 63  0  0  0  0  0  0  0  0999 V2000
   -3.7423    0.9023    2.3995 C   0  0  0  0  0  0  0  0  0  0  0  0
   -2.8160   -0.3121    2.1582 C   0  0  0  0  0  0  0  0  0  0  0  0
   -3.6744   -1.5834    2.3135 C   0  0  0  0  0  0  0  0  0  0  0  0
   -1.7302   -0.2965    3.2517 C   0  0  0  0  0  0  0  0  0  0  0  0
   -2.2367   -0.2310    0.7144 C   0  0  1  0  0  0  0  0  0  0  0  0
   -1.3475    0.9168    0.5342 N   0  0  0  0  0  0  0  0  0  0  0  0
   -1.6585    2.0107   -0.2329 C   0  0  0  0  0  0  0  0  0  0  0  0
   -2.7963    2.2726   -0.6064 O   0  0  0  0  0  0  0  0  0  0  0  0
   -0.4992    2.7891   -0.6432 C   0  0  0  0  0  0  0  0  0  0  0  0
   -0.5224    4.0199   -1.2859 C   0  0  0  0  0  0  0  0  0  0  0  0
    0.7707    4.3829   -1.5822 N   0  0  0  0  0  0  0  0  0  0  0  0
    1.6262    3.3975   -1.1760 C   0  0  0  0  0  0  0  0  0  0  0  0
    2.9593    3.3705   -1.3613 N   0  0  0  0  0  0  0  0  0  0  0  0
    3.4874    2.2209   -0.8553 C   0  0  0  0  0  0  0  0  0  0  0  0
    2.7736    1.2002   -0.2063 C   0  0  0  0  0  0  0  0  0  0  0  0
    1.4298    1.2910   -0.0374 N   0  0  0  0  0  0  0  0  0  0  0  0
    0.8685    2.4149   -0.5566 C   0  0  0  0  0  0  0  0  0  0  0  0
    3.4680   -0.0501    0.3265 C   0  0  0  0  0  0  0  0  0  0  0  0
    3.4301   -1.2708   -0.5894 C   0  0  0  0  0  0  0  0  0  0  0  0
    2.0578   -1.9638   -0.6223 C   0  0  0  0  0  0  0  0  0  0  0  0
    1.2554   -1.6413   -1.8856 C   0  0  0  0  0  0  0  0  0  0  0  0
   -0.1444   -2.2698   -1.8533 C   0  0  0  0  0  0  0  0  0  0  0  0
   -1.0071   -1.9331   -3.0980 C   0  0  0  0  0  0  0  0  0  0  0  0
   -1.8685   -3.0017   -3.5570 C   0  0  0  0  0  0  0  0  0  0  0  0
   -2.5557   -3.8532   -3.9428 N   0  0  0  0  0  0  0  0  0  0  0  0
   -1.7019   -0.8469   -2.2537 C   0  0  0  0  0  0  0  0  0  0  0  0
   -1.0993   -1.4723   -1.0956 N   0  0  0  0  0  0  0  0  0  0  0  0
   -1.3629   -1.4278    0.2504 C   0  0  0  0  0  0  0  0  0  0  0  0
   -0.8508   -2.2358    1.0229 O   0  0  0  0  0  0  0  0  0  0  0  0
    4.6897    0.1248    1.2215 C   0  0  0  0  0  0  0  0  0  0  0  0
    3.3914   -0.3089    1.8259 C   0  0  0  0  0  0  0  0  0  0  0  0
   -4.5335    0.9534    1.6431 H   0  0  0  0  0  0  0  0  0  0  0  0
   -3.1871    1.8460    2.3709 H   0  0  0  0  0  0  0  0  0  0  0  0
   -4.2275    0.8416    3.3807 H   0  0  0  0  0  0  0  0  0  0  0  0
   -4.1741   -1.6053    3.2890 H   0  0  0  0  0  0  0  0  0  0  0  0
   -3.0750   -2.4959    2.2405 H   0  0  0  0  0  0  0  0  0  0  0  0
   -4.4519   -1.6304    1.5427 H   0  0  0  0  0  0  0  0  0  0  0  0
   -1.1094    0.6039    3.1922 H   0  0  0  0  0  0  0  0  0  0  0  0
   -2.1840   -0.3102    4.2499 H   0  0  0  0  0  0  0  0  0  0  0  0
   -1.0683   -1.1643    3.1933 H   0  0  0  0  0  0  0  0  0  0  0  0
   -3.0731   -0.1462    0.0095 H   0  0  0  0  0  0  0  0  0  0  0  0
   -0.3701    0.7886    0.7964 H   0  0  0  0  0  0  0  0  0  0  0  0
   -1.3549    4.6527   -1.5679 H   0  0  0  0  0  0  0  0  0  0  0  0
    1.0632    5.2221   -2.0629 H   0  0  0  0  0  0  0  0  0  0  0  0
    4.5627    2.1298   -0.9858 H   0  0  0  0  0  0  0  0  0  0  0  0
    4.1629   -2.0044   -0.2280 H   0  0  0  0  0  0  0  0  0  0  0  0
    3.7592   -0.9913   -1.5977 H   0  0  0  0  0  0  0  0  0  0  0  0
    1.4868   -1.7129    0.2751 H   0  0  0  0  0  0  0  0  0  0  0  0
    2.2133   -3.0500   -0.5935 H   0  0  0  0  0  0  0  0  0  0  0  0
    1.8000   -2.0414   -2.7504 H   0  0  0  0  0  0  0  0  0  0  0  0
    1.1917   -0.5582   -2.0365 H   0  0  0  0  0  0  0  0  0  0  0  0
   -0.1419   -3.3290   -1.5701 H   0  0  0  0  0  0  0  0  0  0  0  0
   -0.4317   -1.5060   -3.9296 H   0  0  0  0  0  0  0  0  0  0  0  0
   -2.7952   -0.8596   -2.2547 H   0  0  0  0  0  0  0  0  0  0  0  0
   -1.3393    0.1688   -2.4336 H   0  0  0  0  0  0  0  0  0  0  0  0
    5.4889   -0.6066    1.1661 H   0  0  0  0  0  0  0  0  0  0  0  0
    5.0385    1.1224    1.4666 H   0  0  0  0  0  0  0  0  0  0  0  0
    2.8512    0.3997    2.4454 H   0  0  0  0  0  0  0  0  0  0  0  0
    3.3050   -1.3334    2.1720 H   0  0  0  0  0  0  0  0  0  0  0  0
  1  2  1  0
  2  3  1  0
  2  4  1  0
  2  5  1  0
  5  6  1  0
  6  7  1  0
  7  8  2  0
  7  9  1  0
  9 10  2  0
 10 11  1  0
 11 12  1  0
 12 13  2  0
 13 14  1  0
 14 15  2  0
 15 16  1  0
 16 17  2  0
 15 18  1  0
 18 19  1  0
 19 20  1  0
 20 21  1  0
 21 22  1  0
 22 23  1  0
 23 24  1  0
 24 25  3  0
 23 26  1  0
 26 27  1  0
 27 28  1  0
 28 29  2  0
 18 30  1  0
 30 31  1  0
 28  5  1  0
 17  9  1  0
 31 18  1  0
 17 12  1  0
 27 22  1  0
  1 32  1  0
  1 33  1  0
  1 34  1  0
  3 35  1  0
  3 36  1  0
  3 37  1  0
  4 38  1  0
  4 39  1  0
  4 40  1  0
  5 41  1  6
  6 42  1  0
 10 43  1  0
 11 44  1  0
 14 45  1  0
 19 46  1  0
 19 47  1  0
 20 48  1  0
 20 49  1  0
 21 50  1  0
 21 51  1  0
 22 52  1  0
 23 53  1  0
 26 54  1  0
 26 55  1  0
 30 56  1  0
 30 57  1  0
 31 58  1  0
 31 59  1  0
M  END
>  <candidate_id>  (47) 
CAND_826c88beb5

>  <source_generator>  (47) 
v5_3_model_guided_macrocycle

>  <parent_mol_id>  (47) 
JAK2_1a53985c87

>  <canonical_smiles>  (47) 
CC(C)(C)[C@H]1NC(=O)c2c[nH]c3ncc(nc23)C2(CCCC3C(C#N)CN3C1=O)CC2

>  <inchikey>  (47) 
MZARHELMJIUXBU-RWKZGTHUSA-N

>  <valid_rdkit>  (47) 
True

>  <unique_flag>  (47) 
True

>  <novel_flag>  (47) 
True

>  <mw>  (47) 
420.517

>  <logp>  (47) 
2.6685

>  <tpsa>  (47) 
114.77

>  <hbd>  (47) 
2

>  <hba>  (47) 
5

>  <rotatable_bonds>  (47) 
0

>  <qed>  (47) 
0.6799

>  <sa_score>  (47) 
4.542

>  <murcko_scaffold>  (47) 
O=C1NCC(=O)N2CCC2CCCC2(CC2)c2cnc3[nH]cc1c3n2

>  <max_ring_size>  (47) 
14

>  <has_macrocycle_12_20>  (47) 
True

>  <has_constrained_ring_8_11>  (47) 
False

>  <passes_basic_filters>  (47) 
True

>  <generation_notes>  (47) 
v5_3_model_guided_anchor_pair=15-23;anchor_scores=0.691,0.079;linker_length=3;target_ring=13;linker_prob=0.353;chemotype=oxa_aza

$$$$
CAND_a28891a72c
     RDKit          3D

 58 62  0  0  0  0  0  0  0  0999 V2000
   -4.1021   -1.2946    1.4239 C   0  0  0  0  0  0  0  0  0  0  0  0
   -3.4526    0.0802    1.1623 C   0  0  0  0  0  0  0  0  0  0  0  0
   -4.0601    0.7123   -0.0981 C   0  0  0  0  0  0  0  0  0  0  0  0
   -3.8688    0.9900    2.3505 C   0  0  0  0  0  0  0  0  0  0  0  0
   -1.8951   -0.0348    1.1459 C   0  0  1  0  0  0  0  0  0  0  0  0
   -1.2059   -1.1034    0.4194 N   0  0  0  0  0  0  0  0  0  0  0  0
   -1.4743   -1.7573   -0.7530 C   0  0  0  0  0  0  0  0  0  0  0  0
   -2.5371   -1.7285   -1.3552 O   0  0  0  0  0  0  0  0  0  0  0  0
   -0.3132   -2.4682   -1.2867 C   0  0  0  0  0  0  0  0  0  0  0  0
   -0.2891   -3.3719   -2.3404 C   0  0  0  0  0  0  0  0  0  0  0  0
    1.0213   -3.7241   -2.5854 N   0  0  0  0  0  0  0  0  0  0  0  0
    1.8472   -3.0328   -1.7423 C   0  0  0  0  0  0  0  0  0  0  0  0
    3.1947   -3.0322   -1.7429 N   0  0  0  0  0  0  0  0  0  0  0  0
    3.6705   -2.1445   -0.8189 C   0  0  0  0  0  0  0  0  0  0  0  0
    2.8960   -1.3715    0.0614 C   0  0  0  0  0  0  0  0  0  0  0  0
    1.5468   -1.4844    0.0645 N   0  0  0  0  0  0  0  0  0  0  0  0
    1.0394   -2.2915   -0.8981 C   0  0  0  0  0  0  0  0  0  0  0  0
    3.5067   -0.3198    0.9894 C   0  0  0  0  0  0  0  0  0  0  0  0
    4.6755   -0.7072    1.8841 C   0  0  0  0  0  0  0  0  0  0  0  0
    3.3203   -0.5068    2.4894 C   0  0  0  0  0  0  0  0  0  0  0  0
    3.4511    1.1039    0.4426 C   0  0  0  0  0  0  0  0  0  0  0  0
    2.0740    1.5883    0.4927 N   0  0  0  0  0  0  0  0  0  0  0  0
    1.6918    2.3722   -0.6793 C   0  0  0  0  0  0  0  0  0  0  0  0
    0.1972    2.7726   -0.6613 C   0  0  0  0  0  0  0  0  0  0  0  0
   -0.5989    2.7545   -1.9957 C   0  0  0  0  0  0  0  0  0  0  0  0
    0.1476    2.9660   -3.2099 C   0  0  0  0  0  0  0  0  0  0  0  0
    0.7630    3.1431   -4.1772 N   0  0  0  0  0  0  0  0  0  0  0  0
   -0.9458    1.2841   -1.6576 C   0  0  0  0  0  0  0  0  0  0  0  0
   -0.6925    1.6651   -0.2863 N   0  0  0  0  0  0  0  0  0  0  0  0
   -1.1139    1.2949    0.9555 C   0  0  0  0  0  0  0  0  0  0  0  0
   -0.9171    2.0439    1.9205 O   0  0  0  0  0  0  0  0  0  0  0  0
   -3.6905   -1.7584    2.3276 H   0  0  0  0  0  0  0  0  0  0  0  0
   -5.1847   -1.1982    1.5686 H   0  0  0  0  0  0  0  0  0  0  0  0
   -3.9575   -1.9925    0.5971 H   0  0  0  0  0  0  0  0  0  0  0  0
   -3.6586    1.7150   -0.2776 H   0  0  0  0  0  0  0  0  0  0  0  0
   -5.1467    0.8200    0.0066 H   0  0  0  0  0  0  0  0  0  0  0  0
   -3.8961    0.1152   -0.9942 H   0  0  0  0  0  0  0  0  0  0  0  0
   -4.9595    1.0277    2.4579 H   0  0  0  0  0  0  0  0  0  0  0  0
   -3.5258    2.0205    2.2114 H   0  0  0  0  0  0  0  0  0  0  0  0
   -3.4598    0.6214    3.2980 H   0  0  0  0  0  0  0  0  0  0  0  0
   -1.6297   -0.3103    2.1799 H   0  0  0  0  0  0  0  0  0  0  0  0
   -0.2439   -1.2117    0.7431 H   0  0  0  0  0  0  0  0  0  0  0  0
   -1.0924   -3.7719   -2.9464 H   0  0  0  0  0  0  0  0  0  0  0  0
    1.3481   -4.3449   -3.3124 H   0  0  0  0  0  0  0  0  0  0  0  0
    4.7531   -2.0499   -0.8121 H   0  0  0  0  0  0  0  0  0  0  0  0
    5.0581   -1.7217    1.8540 H   0  0  0  0  0  0  0  0  0  0  0  0
    5.4370    0.0350    2.0978 H   0  0  0  0  0  0  0  0  0  0  0  0
    2.7753   -1.3796    2.8332 H   0  0  0  0  0  0  0  0  0  0  0  0
    3.1546    0.3734    3.1006 H   0  0  0  0  0  0  0  0  0  0  0  0
    4.0921    1.7788    1.0223 H   0  0  0  0  0  0  0  0  0  0  0  0
    3.8507    1.0960   -0.5795 H   0  0  0  0  0  0  0  0  0  0  0  0
    1.8812    2.0839    1.3627 H   0  0  0  0  0  0  0  0  0  0  0  0
    2.3042    3.2788   -0.7493 H   0  0  0  0  0  0  0  0  0  0  0  0
    1.8994    1.7672   -1.5699 H   0  0  0  0  0  0  0  0  0  0  0  0
    0.0219    3.6719   -0.0579 H   0  0  0  0  0  0  0  0  0  0  0  0
   -1.4855    3.4047   -1.9493 H   0  0  0  0  0  0  0  0  0  0  0  0
   -1.9713    1.0046   -1.8945 H   0  0  0  0  0  0  0  0  0  0  0  0
   -0.2502    0.5271   -2.0313 H   0  0  0  0  0  0  0  0  0  0  0  0
  1  2  1  0
  2  3  1  0
  2  4  1  0
  2  5  1  0
  5  6  1  0
  6  7  1  0
  7  8  2  0
  7  9  1  0
  9 10  2  0
 10 11  1  0
 11 12  1  0
 12 13  2  0
 13 14  1  0
 14 15  2  0
 15 16  1  0
 16 17  2  0
 15 18  1  0
 18 19  1  0
 19 20  1  0
 18 21  1  0
 21 22  1  0
 22 23  1  0
 23 24  1  0
 24 25  1  0
 25 26  1  0
 26 27  3  0
 25 28  1  0
 28 29  1  0
 29 30  1  0
 30 31  2  0
 30  5  1  0
 17  9  1  0
 20 18  1  0
 29 24  1  0
 17 12  1  0
  1 32  1  0
  1 33  1  0
  1 34  1  0
  3 35  1  0
  3 36  1  0
  3 37  1  0
  4 38  1  0
  4 39  1  0
  4 40  1  0
  5 41  1  1
  6 42  1  0
 10 43  1  0
 11 44  1  0
 14 45  1  0
 19 46  1  0
 19 47  1  0
 20 48  1  0
 20 49  1  0
 21 50  1  0
 21 51  1  0
 22 52  1  0
 23 53  1  0
 23 54  1  0
 24 55  1  0
 25 56  1  0
 28 57  1  0
 28 58  1  0
M  END
>  <candidate_id>  (48) 
CAND_a28891a72c

>  <source_generator>  (48) 
v5_3_model_guided_macrocycle

>  <parent_mol_id>  (48) 
JAK2_1a53985c87

>  <canonical_smiles>  (48) 
CC(C)(C)[C@H]1NC(=O)c2c[nH]c3ncc(nc23)C2(CC2)CNCC2C(C#N)CN2C1=O

>  <inchikey>  (48) 
ZBDUOXGCIIUPIH-AJUCZRQESA-N

>  <valid_rdkit>  (48) 
True

>  <unique_flag>  (48) 
True

>  <novel_flag>  (48) 
True

>  <mw>  (48) 
421.505

>  <logp>  (48) 
1.0878

>  <tpsa>  (48) 
126.8

>  <hbd>  (48) 
3

>  <hba>  (48) 
6

>  <rotatable_bonds>  (48) 
0

>  <qed>  (48) 
0.5844

>  <sa_score>  (48) 
4.547

>  <murcko_scaffold>  (48) 
O=C1NCC(=O)N2CCC2CNCC2(CC2)c2cnc3[nH]cc1c3n2

>  <max_ring_size>  (48) 
14

>  <has_macrocycle_12_20>  (48) 
True

>  <has_constrained_ring_8_11>  (48) 
False

>  <passes_basic_filters>  (48) 
True

>  <generation_notes>  (48) 
v5_3_model_guided_anchor_pair=15-23;anchor_scores=0.691,0.079;linker_length=3;target_ring=13;linker_prob=0.353;chemotype=aza

$$$$
CAND_b3c1e9c6e7
     RDKit          3D

 64 69  0  0  0  0  0  0  0  0999 V2000
   -2.9422    0.9140   -1.0703 O   0  0  0  0  0  0  0  0  0  0  0  0
   -3.6429    0.6413   -0.1041 C   0  0  0  0  0  0  0  0  0  0  0  0
   -4.3186    1.5506    0.6637 N   0  0  0  0  0  0  0  0  0  0  0  0
   -4.0883    2.9135    0.7852 C   0  0  0  0  0  0  0  0  0  0  0  0
   -5.0851    3.7137    1.3085 C   0  0  0  0  0  0  0  0  0  0  0  0
   -4.5784    4.9719    1.3829 N   0  0  0  0  0  0  0  0  0  0  0  0
   -3.3083    5.0545    0.9987 N   0  0  0  0  0  0  0  0  0  0  0  0
   -2.9790    3.8094    0.6077 C   0  0  0  0  0  0  0  0  0  0  0  0
   -1.4808    3.5511    0.1679 C   0  0  0  0  0  0  0  0  0  0  0  0
   -0.4915    4.4105    0.3621 N   0  0  0  0  0  0  0  0  0  0  0  0
    0.6570    3.7413    0.0188 C   0  0  0  0  0  0  0  0  0  0  0  0
    1.9987    4.1240    0.1340 C   0  0  0  0  0  0  0  0  0  0  0  0
    2.9919    3.2059   -0.2446 C   0  0  0  0  0  0  0  0  0  0  0  0
    2.6672    1.9423   -0.7745 C   0  0  0  0  0  0  0  0  0  0  0  0
    1.3198    1.5856   -0.9472 C   0  0  0  0  0  0  0  0  0  0  0  0
    0.3603    2.4922   -0.4997 C   0  0  0  0  0  0  0  0  0  0  0  0
   -1.0014    2.4184   -0.4251 N   0  0  0  0  0  0  0  0  0  0  0  0
    3.7689    0.9605   -1.1245 C   0  0  0  0  0  0  0  0  0  0  0  0
    3.8468   -0.1489   -0.1590 N   0  0  0  0  0  0  0  0  0  0  0  0
    5.2491   -0.4845    0.1507 C   0  0  0  0  0  0  0  0  0  0  0  0
    5.3608   -1.8023    0.9315 C   0  0  0  0  0  0  0  0  0  0  0  0
    4.8170   -2.9337    0.2383 O   0  0  0  0  0  0  0  0  0  0  0  0
    3.9886   -2.5626   -0.8665 C   0  0  0  0  0  0  0  0  0  0  0  0
    3.0685   -1.3507   -0.5684 C   0  0  0  0  0  0  0  0  0  0  0  0
    2.0180   -1.6470    0.5354 C   0  0  0  0  0  0  0  0  0  0  0  0
    1.0975   -2.8226    0.1827 C   0  0  0  0  0  0  0  0  0  0  0  0
   -0.0631   -3.0126    1.1659 C   0  0  0  0  0  0  0  0  0  0  0  0
   -1.2382   -2.0360    1.0197 C   0  0  0  0  0  0  0  0  0  0  0  0
   -1.8707   -2.0473   -0.3774 C   0  0  0  0  0  0  0  0  0  0  0  0
   -3.3798   -1.8220   -0.3572 C   0  0  0  0  0  0  0  0  0  0  0  0
   -4.1534   -2.2846   -1.5751 C   0  0  0  0  0  0  0  0  0  0  0  0
   -4.2542   -3.0608   -0.2983 C   0  0  0  0  0  0  0  0  0  0  0  0
   -3.8540   -0.6488    0.3339 N   0  0  0  0  0  0  0  0  0  0  0  0
   -5.1785    1.2150    1.0729 H   0  0  0  0  0  0  0  0  0  0  0  0
   -6.0961    3.5060    1.6266 H   0  0  0  0  0  0  0  0  0  0  0  0
   -5.0328    5.8188    1.7092 H   0  0  0  0  0  0  0  0  0  0  0  0
    2.2539    5.0941    0.5443 H   0  0  0  0  0  0  0  0  0  0  0  0
    4.0337    3.4885   -0.1079 H   0  0  0  0  0  0  0  0  0  0  0  0
    1.0282    0.6259   -1.3560 H   0  0  0  0  0  0  0  0  0  0  0  0
   -1.5681    1.6560   -0.7679 H   0  0  0  0  0  0  0  0  0  0  0  0
    4.7137    1.5218   -1.1340 H   0  0  0  0  0  0  0  0  0  0  0  0
    3.6469    0.6078   -2.1570 H   0  0  0  0  0  0  0  0  0  0  0  0
    5.6925    0.3215    0.7467 H   0  0  0  0  0  0  0  0  0  0  0  0
    5.8327   -0.5731   -0.7753 H   0  0  0  0  0  0  0  0  0  0  0  0
    4.8518   -1.7227    1.8985 H   0  0  0  0  0  0  0  0  0  0  0  0
    6.4125   -2.0232    1.1417 H   0  0  0  0  0  0  0  0  0  0  0  0
    4.6398   -2.3416   -1.7221 H   0  0  0  0  0  0  0  0  0  0  0  0
    3.4083   -3.4430   -1.1577 H   0  0  0  0  0  0  0  0  0  0  0  0
    2.5143   -1.1518   -1.4943 H   0  0  0  0  0  0  0  0  0  0  0  0
    1.4054   -0.7537    0.6990 H   0  0  0  0  0  0  0  0  0  0  0  0
    2.5119   -1.8586    1.4913 H   0  0  0  0  0  0  0  0  0  0  0  0
    0.7216   -2.7143   -0.8401 H   0  0  0  0  0  0  0  0  0  0  0  0
    1.6881   -3.7460    0.2029 H   0  0  0  0  0  0  0  0  0  0  0  0
   -0.4548   -4.0297    1.0336 H   0  0  0  0  0  0  0  0  0  0  0  0
    0.3159   -2.9633    2.1940 H   0  0  0  0  0  0  0  0  0  0  0  0
   -1.9879   -2.3118    1.7720 H   0  0  0  0  0  0  0  0  0  0  0  0
   -0.9170   -1.0172    1.2661 H   0  0  0  0  0  0  0  0  0  0  0  0
   -1.3946   -1.2799   -0.9995 H   0  0  0  0  0  0  0  0  0  0  0  0
   -1.6641   -3.0073   -0.8680 H   0  0  0  0  0  0  0  0  0  0  0  0
   -3.6038   -2.7231   -2.4006 H   0  0  0  0  0  0  0  0  0  0  0  0
   -5.0109   -1.7009   -1.8909 H   0  0  0  0  0  0  0  0  0  0  0  0
   -5.1922   -3.0161    0.2429 H   0  0  0  0  0  0  0  0  0  0  0  0
   -3.7780   -4.0344   -0.2592 H   0  0  0  0  0  0  0  0  0  0  0  0
   -4.2727   -0.7800    1.2441 H   0  0  0  0  0  0  0  0  0  0  0  0
  1  2  2  0
  2  3  1  0
  3  4  1  0
  4  5  2  0
  5  6  1  0
  6  7  1  0
  7  8  2  0
  8  9  1  0
  9 10  2  0
 10 11  1  0
 11 12  2  0
 12 13  1  0
 13 14  2  0
 14 15  1  0
 15 16  2  0
 16 17  1  0
 14 18  1  0
 18 19  1  0
 19 20  1  0
 20 21  1  0
 21 22  1  0
 22 23  1  0
 23 24  1  0
 24 25  1  0
 25 26  1  0
 26 27  1  0
 27 28  1  0
 28 29  1  0
 29 30  1  0
 30 31  1  0
 31 32  1  0
 30 33  1  0
 33  2  1  0
  8  4  1  0
 17  9  1  0
 24 19  1  0
 32 30  1  0
 16 11  1  0
  3 34  1  0
  5 35  1  0
  6 36  1  0
 12 37  1  0
 13 38  1  0
 15 39  1  0
 17 40  1  0
 18 41  1  0
 18 42  1  0
 20 43  1  0
 20 44  1  0
 21 45  1  0
 21 46  1  0
 23 47  1  0
 23 48  1  0
 24 49  1  0
 25 50  1  0
 25 51  1  0
 26 52  1  0
 26 53  1  0
 27 54  1  0
 27 55  1  0
 28 56  1  0
 28 57  1  0
 29 58  1  0
 29 59  1  0
 31 60  1  0
 31 61  1  0
 32 62  1  0
 32 63  1  0
 33 64  1  0
M  END
>  <candidate_id>  (49) 
CAND_b3c1e9c6e7

>  <source_generator>  (49) 
v5_3_model_guided_macrocycle

>  <parent_mol_id>  (49) 
JAK2_dbe7510318

>  <canonical_smiles>  (49) 
O=C1Nc2c[nH]nc2-c2nc3ccc(cc3[nH]2)CN2CCOCC2CCCCCC2(CC2)N1

>  <inchikey>  (49) 
JJOHDIRSSGIJTG-UHFFFAOYSA-N

>  <valid_rdkit>  (49) 
True

>  <unique_flag>  (49) 
True

>  <novel_flag>  (49) 
True

>  <mw>  (49) 
449.559

>  <logp>  (49) 
3.772

>  <tpsa>  (49) 
110.96

>  <hbd>  (49) 
4

>  <hba>  (49) 
5

>  <rotatable_bonds>  (49) 
0

>  <qed>  (49) 
0.4175

>  <sa_score>  (49) 
4.203

>  <murcko_scaffold>  (49) 
O=C1Nc2c[nH]nc2-c2nc3ccc(cc3[nH]2)CN2CCOCC2CCCCCC2(CC2)N1

>  <max_ring_size>  (49) 
19

>  <has_macrocycle_12_20>  (49) 
True

>  <has_constrained_ring_8_11>  (49) 
False

>  <passes_basic_filters>  (49) 
True

>  <generation_notes>  (49) 
v5_3_model_guided_anchor_pair=25-16;anchor_scores=0.691,0.079;linker_length=5;target_ring=18;linker_prob=0.200;chemotype=alkyl

$$$$
CAND_ebd66c7b75
     RDKit          3D

 63 68  0  0  0  0  0  0  0  0999 V2000
   -5.1221   -0.1471    0.1408 O   0  0  0  0  0  0  0  0  0  0  0  0
   -4.0884   -0.4092   -0.4643 C   0  0  0  0  0  0  0  0  0  0  0  0
   -3.4215   -1.6145   -0.4378 N   0  0  0  0  0  0  0  0  0  0  0  0
   -3.5774   -2.5789    0.5415 C   0  0  0  0  0  0  0  0  0  0  0  0
   -4.5771   -2.7658    1.4593 C   0  0  0  0  0  0  0  0  0  0  0  0
   -4.1255   -3.7266    2.3189 N   0  0  0  0  0  0  0  0  0  0  0  0
   -2.8611   -4.1331    2.0671 N   0  0  0  0  0  0  0  0  0  0  0  0
   -2.5685   -3.4979    0.9264 C   0  0  0  0  0  0  0  0  0  0  0  0
   -1.1775   -3.5401    0.2263 C   0  0  0  0  0  0  0  0  0  0  0  0
   -0.9431   -3.0868   -0.9916 N   0  0  0  0  0  0  0  0  0  0  0  0
    0.4116   -2.8973   -1.0361 C   0  0  0  0  0  0  0  0  0  0  0  0
    1.1927   -2.3354   -2.0539 C   0  0  0  0  0  0  0  0  0  0  0  0
    2.4896   -1.9233   -1.7304 C   0  0  0  0  0  0  0  0  0  0  0  0
    2.9898   -2.0750   -0.4248 C   0  0  0  0  0  0  0  0  0  0  0  0
    2.2874   -2.8380    0.5315 C   0  0  0  0  0  0  0  0  0  0  0  0
    0.9942   -3.2272    0.1826 C   0  0  0  0  0  0  0  0  0  0  0  0
   -0.0154   -3.8469    0.8834 N   0  0  0  0  0  0  0  0  0  0  0  0
    4.1841   -1.2517    0.0200 C   0  0  0  0  0  0  0  0  0  0  0  0
    3.7740   -0.0059    0.7311 N   0  0  0  0  0  0  0  0  0  0  0  0
    4.9360    0.5834    1.4324 C   0  0  0  0  0  0  0  0  0  0  0  0
    5.7714    1.5115    0.5377 C   0  0  0  0  0  0  0  0  0  0  0  0
    5.0320    2.6204    0.0043 O   0  0  0  0  0  0  0  0  0  0  0  0
    3.6105    2.4610    0.1128 C   0  0  0  0  0  0  0  0  0  0  0  0
    3.1473    1.0117   -0.1897 C   0  0  0  0  0  0  0  0  0  0  0  0
    1.5948    0.8513   -0.2294 C   0  0  0  0  0  0  0  0  0  0  0  0
    0.7275    2.0540    0.1889 C   0  0  0  0  0  0  0  0  0  0  0  0
   -0.6955    1.7220   -0.0081 N   0  0  0  0  0  0  0  0  0  0  0  0
   -1.5449    2.9149    0.1341 C   0  0  0  0  0  0  0  0  0  0  0  0
   -3.0554    2.6127    0.1741 C   0  0  0  0  0  0  0  0  0  0  0  0
   -3.6138    1.9518   -1.0855 C   0  0  0  0  0  0  0  0  0  0  0  0
   -3.6281    2.7550   -2.3711 C   0  0  0  0  0  0  0  0  0  0  0  0
   -4.9129    2.5011   -1.6441 C   0  0  0  0  0  0  0  0  0  0  0  0
   -3.3606    0.5341   -1.1757 N   0  0  0  0  0  0  0  0  0  0  0  0
   -2.5914   -1.7239   -1.0132 H   0  0  0  0  0  0  0  0  0  0  0  0
   -5.5336   -2.2837    1.5986 H   0  0  0  0  0  0  0  0  0  0  0  0
   -4.6032   -4.1091    3.1282 H   0  0  0  0  0  0  0  0  0  0  0  0
    0.7535   -2.0980   -3.0162 H   0  0  0  0  0  0  0  0  0  0  0  0
    3.0543   -1.3602   -2.4714 H   0  0  0  0  0  0  0  0  0  0  0  0
    2.6660   -2.9683    1.5398 H   0  0  0  0  0  0  0  0  0  0  0  0
    0.0198   -4.1325    1.8505 H   0  0  0  0  0  0  0  0  0  0  0  0
    4.8423   -1.0348   -0.8328 H   0  0  0  0  0  0  0  0  0  0  0  0
    4.7690   -1.8897    0.6972 H   0  0  0  0  0  0  0  0  0  0  0  0
    4.5485    1.1629    2.2846 H   0  0  0  0  0  0  0  0  0  0  0  0
    5.5748   -0.1953    1.8700 H   0  0  0  0  0  0  0  0  0  0  0  0
    6.1978    0.9559   -0.3104 H   0  0  0  0  0  0  0  0  0  0  0  0
    6.6090    1.9243    1.1097 H   0  0  0  0  0  0  0  0  0  0  0  0
    3.2988    2.7873    1.1151 H   0  0  0  0  0  0  0  0  0  0  0  0
    3.1748    3.1590   -0.6105 H   0  0  0  0  0  0  0  0  0  0  0  0
    3.5262    0.8072   -1.2031 H   0  0  0  0  0  0  0  0  0  0  0  0
    1.3234    0.6013   -1.2718 H   0  0  0  0  0  0  0  0  0  0  0  0
    1.2888   -0.0129    0.3816 H   0  0  0  0  0  0  0  0  0  0  0  0
    0.9058    2.2954    1.2484 H   0  0  0  0  0  0  0  0  0  0  0  0
    0.9776    2.9280   -0.4267 H   0  0  0  0  0  0  0  0  0  0  0  0
   -0.9756    1.0171    0.6779 H   0  0  0  0  0  0  0  0  0  0  0  0
   -1.3390    3.6046   -0.6948 H   0  0  0  0  0  0  0  0  0  0  0  0
   -1.2908    3.4355    1.0696 H   0  0  0  0  0  0  0  0  0  0  0  0
   -3.2902    1.9902    1.0449 H   0  0  0  0  0  0  0  0  0  0  0  0
   -3.5775    3.5652    0.3446 H   0  0  0  0  0  0  0  0  0  0  0  0
   -3.2349    3.7645   -2.3605 H   0  0  0  0  0  0  0  0  0  0  0  0
   -3.4746    2.2324   -3.3096 H   0  0  0  0  0  0  0  0  0  0  0  0
   -5.3892    3.3306   -1.1312 H   0  0  0  0  0  0  0  0  0  0  0  0
   -5.6197    1.7968   -2.0737 H   0  0  0  0  0  0  0  0  0  0  0  0
   -2.4649    0.2662   -1.5629 H   0  0  0  0  0  0  0  0  0  0  0  0
  1  2  2  0
  2  3  1  0
  3  4  1  0
  4  5  2  0
  5  6  1  0
  6  7  1  0
  7  8  2  0
  8  9  1  0
  9 10  2  0
 10 11  1  0
 11 12  2  0
 12 13  1  0
 13 14  2  0
 14 15  1  0
 15 16  2  0
 16 17  1  0
 14 18  1  0
 18 19  1  0
 19 20  1  0
 20 21  1  0
 21 22  1  0
 22 23  1  0
 23 24  1  0
 24 25  1  0
 25 26  1  0
 26 27  1  0
 27 28  1  0
 28 29  1  0
 29 30  1  0
 30 31  1  0
 31 32  1  0
 30 33  1  0
 33  2  1  0
  8  4  1  0
 17  9  1  0
 24 19  1  0
 32 30  1  0
 16 11  1  0
  3 34  1  0
  5 35  1  0
  6 36  1  0
 12 37  1  0
 13 38  1  0
 15 39  1  0
 17 40  1  0
 18 41  1  0
 18 42  1  0
 20 43  1  0
 20 44  1  0
 21 45  1  0
 21 46  1  0
 23 47  1  0
 23 48  1  0
 24 49  1  0
 25 50  1  0
 25 51  1  0
 26 52  1  0
 26 53  1  0
 27 54  1  0
 28 55  1  0
 28 56  1  0
 29 57  1  0
 29 58  1  0
 31 59  1  0
 31 60  1  0
 32 61  1  0
 32 62  1  0
 33 63  1  0
M  END
>  <candidate_id>  (50) 
CAND_ebd66c7b75

>  <source_generator>  (50) 
v5_3_model_guided_macrocycle

>  <parent_mol_id>  (50) 
JAK2_dbe7510318

>  <canonical_smiles>  (50) 
O=C1Nc2c[nH]nc2-c2nc3ccc(cc3[nH]2)CN2CCOCC2CCNCCC2(CC2)N1

>  <inchikey>  (50) 
IQKCQIODXLYFBQ-UHFFFAOYSA-N

>  <valid_rdkit>  (50) 
True

>  <unique_flag>  (50) 
True

>  <novel_flag>  (50) 
True

>  <mw>  (50) 
450.547

>  <logp>  (50) 
2.1913

>  <tpsa>  (50) 
122.99

>  <hbd>  (50) 
5

>  <hba>  (50) 
6

>  <rotatable_bonds>  (50) 
0

>  <qed>  (50) 
0.3578

>  <sa_score>  (50) 
4.209

>  <murcko_scaffold>  (50) 
O=C1Nc2c[nH]nc2-c2nc3ccc(cc3[nH]2)CN2CCOCC2CCNCCC2(CC2)N1

>  <max_ring_size>  (50) 
19

>  <has_macrocycle_12_20>  (50) 
True

>  <has_constrained_ring_8_11>  (50) 
False

>  <passes_basic_filters>  (50) 
True

>  <generation_notes>  (50) 
v5_3_model_guided_anchor_pair=25-16;anchor_scores=0.691,0.079;linker_length=5;target_ring=18;linker_prob=0.200;chemotype=aza

$$$$
CAND_453a8d70ca
     RDKit          3D

 61 66  0  0  0  0  0  0  0  0999 V2000
   -2.7564    0.2402   -0.0280 O   0  0  0  0  0  0  0  0  0  0  0  0
   -3.4409    0.2784    0.9891 C   0  0  0  0  0  0  0  0  0  0  0  0
   -4.1824    1.3713    1.4142 N   0  0  0  0  0  0  0  0  0  0  0  0
   -4.0684    2.6041    0.7907 C   0  0  0  0  0  0  0  0  0  0  0  0
   -5.1315    3.4351    0.5287 C   0  0  0  0  0  0  0  0  0  0  0  0
   -4.6445    4.4089   -0.2978 N   0  0  0  0  0  0  0  0  0  0  0  0
   -3.3271    4.3038   -0.5478 N   0  0  0  0  0  0  0  0  0  0  0  0
   -2.9511    3.2688    0.2211 C   0  0  0  0  0  0  0  0  0  0  0  0
   -1.4457    2.9383    0.4568 C   0  0  0  0  0  0  0  0  0  0  0  0
   -0.9522    2.2933    1.4963 N   0  0  0  0  0  0  0  0  0  0  0  0
    0.3813    2.1410    1.2182 C   0  0  0  0  0  0  0  0  0  0  0  0
    1.3752    1.4927    1.9614 C   0  0  0  0  0  0  0  0  0  0  0  0
    2.6107    1.2548    1.3478 C   0  0  0  0  0  0  0  0  0  0  0  0
    2.8485    1.6485    0.0163 C   0  0  0  0  0  0  0  0  0  0  0  0
    1.9201    2.4603   -0.6651 C   0  0  0  0  0  0  0  0  0  0  0  0
    0.6950    2.6718   -0.0288 C   0  0  0  0  0  0  0  0  0  0  0  0
   -0.4556    3.3109   -0.4131 N   0  0  0  0  0  0  0  0  0  0  0  0
    4.0401    1.0774   -0.7246 C   0  0  0  0  0  0  0  0  0  0  0  0
    3.7093    0.1136   -1.8185 N   0  0  0  0  0  0  0  0  0  0  0  0
    4.9987   -0.3231   -2.4278 C   0  0  0  0  0  0  0  0  0  0  0  0
    5.6119   -1.6069   -1.8175 C   0  0  0  0  0  0  0  0  0  0  0  0
    5.2386   -1.7803   -0.4478 O   0  0  0  0  0  0  0  0  0  0  0  0
    3.8073   -1.9033   -0.2915 C   0  0  0  0  0  0  0  0  0  0  0  0
    3.0094   -1.1456   -1.3829 C   0  0  0  0  0  0  0  0  0  0  0  0
    1.4931   -1.0042   -1.0743 C   0  0  0  0  0  0  0  0  0  0  0  0
    0.8508   -2.2037   -0.5191 N   0  0  0  0  0  0  0  0  0  0  0  0
   -0.4747   -1.8493   -0.0073 C   0  0  0  0  0  0  0  0  0  0  0  0
   -0.9865   -2.9481    0.7340 O   0  0  0  0  0  0  0  0  0  0  0  0
   -1.7926   -2.5263    1.8404 C   0  0  0  0  0  0  0  0  0  0  0  0
   -3.2221   -2.1635    1.4301 C   0  0  0  0  0  0  0  0  0  0  0  0
   -4.2623   -3.2700    1.5628 C   0  0  0  0  0  0  0  0  0  0  0  0
   -3.8310   -2.8295    0.2046 C   0  0  0  0  0  0  0  0  0  0  0  0
   -3.6601   -0.8283    1.7876 N   0  0  0  0  0  0  0  0  0  0  0  0
   -5.0333    1.1768    1.9169 H   0  0  0  0  0  0  0  0  0  0  0  0
   -6.1835    3.3791    0.7653 H   0  0  0  0  0  0  0  0  0  0  0  0
   -5.1569    5.1651   -0.7401 H   0  0  0  0  0  0  0  0  0  0  0  0
    1.1524    1.0976    2.9456 H   0  0  0  0  0  0  0  0  0  0  0  0
    3.3483    0.6592    1.8826 H   0  0  0  0  0  0  0  0  0  0  0  0
    2.0976    2.7883   -1.6842 H   0  0  0  0  0  0  0  0  0  0  0  0
   -0.6247    3.7911   -1.2839 H   0  0  0  0  0  0  0  0  0  0  0  0
    4.5567    1.9394   -1.1699 H   0  0  0  0  0  0  0  0  0  0  0  0
    4.7508    0.6527   -0.0054 H   0  0  0  0  0  0  0  0  0  0  0  0
    4.8329   -0.5017   -3.4979 H   0  0  0  0  0  0  0  0  0  0  0  0
    5.7396    0.4862   -2.3943 H   0  0  0  0  0  0  0  0  0  0  0  0
    6.7044   -1.5543   -1.8656 H   0  0  0  0  0  0  0  0  0  0  0  0
    5.3019   -2.4954   -2.3809 H   0  0  0  0  0  0  0  0  0  0  0  0
    3.5647   -1.5392    0.7111 H   0  0  0  0  0  0  0  0  0  0  0  0
    3.5692   -2.9726   -0.3219 H   0  0  0  0  0  0  0  0  0  0  0  0
    3.0156   -1.7987   -2.2704 H   0  0  0  0  0  0  0  0  0  0  0  0
    1.3456   -0.2175   -0.3506 H   0  0  0  0  0  0  0  0  0  0  0  0
    0.9699   -0.6943   -1.9881 H   0  0  0  0  0  0  0  0  0  0  0  0
    0.7214   -2.9109   -1.2379 H   0  0  0  0  0  0  0  0  0  0  0  0
   -0.4016   -0.9632    0.6323 H   0  0  0  0  0  0  0  0  0  0  0  0
   -1.1556   -1.6379   -0.8381 H   0  0  0  0  0  0  0  0  0  0  0  0
   -1.8277   -3.3714    2.5376 H   0  0  0  0  0  0  0  0  0  0  0  0
   -1.3076   -1.7095    2.3897 H   0  0  0  0  0  0  0  0  0  0  0  0
   -5.2654   -3.0094    1.8789 H   0  0  0  0  0  0  0  0  0  0  0  0
   -3.9431   -4.2535    1.8902 H   0  0  0  0  0  0  0  0  0  0  0  0
   -4.5220   -2.2512   -0.3978 H   0  0  0  0  0  0  0  0  0  0  0  0
   -3.2173   -3.5075   -0.3782 H   0  0  0  0  0  0  0  0  0  0  0  0
   -4.0372   -0.6784    2.7119 H   0  0  0  0  0  0  0  0  0  0  0  0
  1  2  2  0
  2  3  1  0
  3  4  1  0
  4  5  2  0
  5  6  1  0
  6  7  1  0
  7  8  2  0
  8  9  1  0
  9 10  2  0
 10 11  1  0
 11 12  2  0
 12 13  1  0
 13 14  2  0
 14 15  1  0
 15 16  2  0
 16 17  1  0
 14 18  1  0
 18 19  1  0
 19 20  1  0
 20 21  1  0
 21 22  1  0
 22 23  1  0
 23 24  1  0
 24 25  1  0
 25 26  1  0
 26 27  1  0
 27 28  1  0
 28 29  1  0
 29 30  1  0
 30 31  1  0
 31 32  1  0
 30 33  1  0
 33  2  1  0
  8  4  1  0
 17  9  1  0
 24 19  1  0
 32 30  1  0
 16 11  1  0
  3 34  1  0
  5 35  1  0
  6 36  1  0
 12 37  1  0
 13 38  1  0
 15 39  1  0
 17 40  1  0
 18 41  1  0
 18 42  1  0
 20 43  1  0
 20 44  1  0
 21 45  1  0
 21 46  1  0
 23 47  1  0
 23 48  1  0
 24 49  1  0
 25 50  1  0
 25 51  1  0
 26 52  1  0
 27 53  1  0
 27 54  1  0
 29 55  1  0
 29 56  1  0
 31 57  1  0
 31 58  1  0
 32 59  1  0
 32 60  1  0
 33 61  1  0
M  END
>  <candidate_id>  (51) 
CAND_453a8d70ca

>  <source_generator>  (51) 
v5_3_model_guided_macrocycle

>  <parent_mol_id>  (51) 
JAK2_dbe7510318

>  <canonical_smiles>  (51) 
O=C1Nc2c[nH]nc2-c2nc3ccc(cc3[nH]2)CN2CCOCC2CNCOCC2(CC2)N1

>  <inchikey>  (51) 
IZSUYVKQMSNHRR-UHFFFAOYSA-N

>  <valid_rdkit>  (51) 
True

>  <unique_flag>  (51) 
True

>  <novel_flag>  (51) 
True

>  <mw>  (51) 
452.519

>  <logp>  (51) 
1.3852

>  <tpsa>  (51) 
132.22

>  <hbd>  (51) 
5

>  <hba>  (51) 
7

>  <rotatable_bonds>  (51) 
0

>  <qed>  (51) 
0.3482

>  <sa_score>  (51) 
4.22

>  <murcko_scaffold>  (51) 
O=C1Nc2c[nH]nc2-c2nc3ccc(cc3[nH]2)CN2CCOCC2CNCOCC2(CC2)N1

>  <max_ring_size>  (51) 
19

>  <has_macrocycle_12_20>  (51) 
True

>  <has_constrained_ring_8_11>  (51) 
False

>  <passes_basic_filters>  (51) 
True

>  <generation_notes>  (51) 
v5_3_model_guided_anchor_pair=25-16;anchor_scores=0.691,0.079;linker_length=5;target_ring=18;linker_prob=0.200;chemotype=oxa_aza

$$$$
CAND_09deb650c1
     RDKit          3D

 62 67  0  0  0  0  0  0  0  0999 V2000
   -2.5358   -0.7728   -0.8859 O   0  0  0  0  0  0  0  0  0  0  0  0
   -3.5808   -0.6082   -0.2719 C   0  0  0  0  0  0  0  0  0  0  0  0
   -4.4695   -1.6087    0.0202 N   0  0  0  0  0  0  0  0  0  0  0  0
   -4.2596   -2.9662   -0.2133 C   0  0  0  0  0  0  0  0  0  0  0  0
   -5.3411   -3.8177   -0.3107 C   0  0  0  0  0  0  0  0  0  0  0  0
   -4.8438   -5.0381   -0.6489 N   0  0  0  0  0  0  0  0  0  0  0  0
   -3.5151   -5.0702   -0.7298 N   0  0  0  0  0  0  0  0  0  0  0  0
   -3.1197   -3.8253   -0.4094 C   0  0  0  0  0  0  0  0  0  0  0  0
   -1.5648   -3.5484   -0.2424 C   0  0  0  0  0  0  0  0  0  0  0  0
   -0.5929   -4.3849   -0.5766 N   0  0  0  0  0  0  0  0  0  0  0  0
    0.5782   -3.6842   -0.3943 C   0  0  0  0  0  0  0  0  0  0  0  0
    1.9018   -4.0182   -0.7069 C   0  0  0  0  0  0  0  0  0  0  0  0
    2.9083   -3.0623   -0.4744 C   0  0  0  0  0  0  0  0  0  0  0  0
    2.6251   -1.8013    0.0907 C   0  0  0  0  0  0  0  0  0  0  0  0
    1.3099   -1.5039    0.4717 C   0  0  0  0  0  0  0  0  0  0  0  0
    0.3278   -2.4481    0.1756 C   0  0  0  0  0  0  0  0  0  0  0  0
   -1.0308   -2.4115    0.2992 N   0  0  0  0  0  0  0  0  0  0  0  0
    3.7708   -0.8219    0.3014 C   0  0  0  0  0  0  0  0  0  0  0  0
    3.3904    0.5639    0.6801 N   0  0  0  0  0  0  0  0  0  0  0  0
    4.5730    1.2576    1.2335 C   0  0  0  0  0  0  0  0  0  0  0  0
    5.7105    1.4728    0.2142 C   0  0  0  0  0  0  0  0  0  0  0  0
    5.2477    1.6226   -1.1354 O   0  0  0  0  0  0  0  0  0  0  0  0
    3.9566    2.2319   -1.1772 C   0  0  0  0  0  0  0  0  0  0  0  0
    2.8763    1.3479   -0.4888 C   0  0  0  0  0  0  0  0  0  0  0  0
    1.6968    2.2290    0.0036 C   0  0  0  0  0  0  0  0  0  0  0  0
    0.9794    2.9838   -1.1193 C   0  0  0  0  0  0  0  0  0  0  0  0
   -0.3124    4.0711   -0.4051 S   0  0  0  0  0  0  0  0  0  0  0  0
   -1.8002    3.4676   -1.2828 C   0  0  0  0  0  0  0  0  0  0  0  0
   -2.2365    2.0377   -0.9643 C   0  0  0  0  0  0  0  0  0  0  0  0
   -3.0285    1.7526    0.3230 C   0  0  0  0  0  0  0  0  0  0  0  0
   -3.3879    2.8737    1.2862 C   0  0  0  0  0  0  0  0  0  0  0  0
   -2.3039    1.9084    1.6507 C   0  0  0  0  0  0  0  0  0  0  0  0
   -3.9430    0.6158    0.2497 N   0  0  0  0  0  0  0  0  0  0  0  0
   -5.4139   -1.3374    0.2480 H   0  0  0  0  0  0  0  0  0  0  0  0
   -6.4061   -3.6601   -0.2258 H   0  0  0  0  0  0  0  0  0  0  0  0
   -5.3518   -5.8957   -0.8403 H   0  0  0  0  0  0  0  0  0  0  0  0
    2.1291   -4.9795   -1.1529 H   0  0  0  0  0  0  0  0  0  0  0  0
    3.9311   -3.3142   -0.7494 H   0  0  0  0  0  0  0  0  0  0  0  0
    1.0504   -0.5661    0.9457 H   0  0  0  0  0  0  0  0  0  0  0  0
   -1.5605   -1.5931    0.5469 H   0  0  0  0  0  0  0  0  0  0  0  0
    4.3699   -1.2549    1.1142 H   0  0  0  0  0  0  0  0  0  0  0  0
    4.3964   -0.8200   -0.6002 H   0  0  0  0  0  0  0  0  0  0  0  0
    4.2481    2.2370    1.6090 H   0  0  0  0  0  0  0  0  0  0  0  0
    4.9579    0.7367    2.1191 H   0  0  0  0  0  0  0  0  0  0  0  0
    6.2919    2.3620    0.4813 H   0  0  0  0  0  0  0  0  0  0  0  0
    6.3938    0.6171    0.2214 H   0  0  0  0  0  0  0  0  0  0  0  0
    4.0275    3.2265   -0.7189 H   0  0  0  0  0  0  0  0  0  0  0  0
    3.6973    2.3754   -2.2315 H   0  0  0  0  0  0  0  0  0  0  0  0
    2.4776    0.6575   -1.2432 H   0  0  0  0  0  0  0  0  0  0  0  0
    2.0720    2.9463    0.7463 H   0  0  0  0  0  0  0  0  0  0  0  0
    0.9647    1.5991    0.5220 H   0  0  0  0  0  0  0  0  0  0  0  0
    0.5544    2.2858   -1.8461 H   0  0  0  0  0  0  0  0  0  0  0  0
    1.6748    3.6359   -1.6554 H   0  0  0  0  0  0  0  0  0  0  0  0
   -1.5761    3.5418   -2.3532 H   0  0  0  0  0  0  0  0  0  0  0  0
   -2.6169    4.1713   -1.0948 H   0  0  0  0  0  0  0  0  0  0  0  0
   -2.8846    1.7387   -1.8000 H   0  0  0  0  0  0  0  0  0  0  0  0
   -1.3693    1.3692   -0.9987 H   0  0  0  0  0  0  0  0  0  0  0  0
   -3.0913    3.8961    1.0874 H   0  0  0  0  0  0  0  0  0  0  0  0
   -4.3205    2.8126    1.8363 H   0  0  0  0  0  0  0  0  0  0  0  0
   -2.5060    1.1922    2.4400 H   0  0  0  0  0  0  0  0  0  0  0  0
   -1.2804    2.2611    1.6599 H   0  0  0  0  0  0  0  0  0  0  0  0
   -4.8454    0.7142    0.6912 H   0  0  0  0  0  0  0  0  0  0  0  0
  1  2  2  0
  2  3  1  0
  3  4  1  0
  4  5  2  0
  5  6  1  0
  6  7  1  0
  7  8  2  0
  8  9  1  0
  9 10  2  0
 10 11  1  0
 11 12  2  0
 12 13  1  0
 13 14  2  0
 14 15  1  0
 15 16  2  0
 16 17  1  0
 14 18  1  0
 18 19  1  0
 19 20  1  0
 20 21  1  0
 21 22  1  0
 22 23  1  0
 23 24  1  0
 24 25  1  0
 25 26  1  0
 26 27  1  0
 27 28  1  0
 28 29  1  0
 29 30  1  0
 30 31  1  0
 31 32  1  0
 30 33  1  0
 33  2  1  0
  8  4  1  0
 17  9  1  0
 24 19  1  0
 32 30  1  0
 16 11  1  0
  3 34  1  0
  5 35  1  0
  6 36  1  0
 12 37  1  0
 13 38  1  0
 15 39  1  0
 17 40  1  0
 18 41  1  0
 18 42  1  0
 20 43  1  0
 20 44  1  0
 21 45  1  0
 21 46  1  0
 23 47  1  0
 23 48  1  0
 24 49  1  0
 25 50  1  0
 25 51  1  0
 26 52  1  0
 26 53  1  0
 28 54  1  0
 28 55  1  0
 29 56  1  0
 29 57  1  0
 31 58  1  0
 31 59  1  0
 32 60  1  0
 32 61  1  0
 33 62  1  0
M  END
>  <candidate_id>  (52) 
CAND_09deb650c1

>  <source_generator>  (52) 
v5_3_model_guided_macrocycle

>  <parent_mol_id>  (52) 
JAK2_dbe7510318

>  <canonical_smiles>  (52) 
O=C1Nc2c[nH]nc2-c2nc3ccc(cc3[nH]2)CN2CCOCC2CCSCCC2(CC2)N1

>  <inchikey>  (52) 
DDGKEEUOWIFBMV-UHFFFAOYSA-N

>  <valid_rdkit>  (52) 
True

>  <unique_flag>  (52) 
True

>  <novel_flag>  (52) 
True

>  <mw>  (52) 
467.599

>  <logp>  (52) 
3.3349

>  <tpsa>  (52) 
110.96

>  <hbd>  (52) 
4

>  <hba>  (52) 
6

>  <rotatable_bonds>  (52) 
0

>  <qed>  (52) 
0.4036

>  <sa_score>  (52) 
4.303

>  <murcko_scaffold>  (52) 
O=C1Nc2c[nH]nc2-c2nc3ccc(cc3[nH]2)CN2CCOCC2CCSCCC2(CC2)N1

>  <max_ring_size>  (52) 
19

>  <has_macrocycle_12_20>  (52) 
True

>  <has_constrained_ring_8_11>  (52) 
False

>  <passes_basic_filters>  (52) 
True

>  <generation_notes>  (52) 
v5_3_model_guided_anchor_pair=25-16;anchor_scores=0.691,0.079;linker_length=5;target_ring=18;linker_prob=0.200;chemotype=thioether

$$$$
CAND_2e11abfe19
     RDKit          3D

 62 67  0  0  0  0  0  0  0  0999 V2000
   -3.3569   -0.4378   -1.4043 O   0  0  0  0  0  0  0  0  0  0  0  0
   -3.8542   -0.3201   -0.2904 C   0  0  0  0  0  0  0  0  0  0  0  0
   -4.5648   -1.3022    0.3439 N   0  0  0  0  0  0  0  0  0  0  0  0
   -4.4494   -2.6743    0.1608 C   0  0  0  0  0  0  0  0  0  0  0  0
   -5.4713   -3.5034    0.5766 C   0  0  0  0  0  0  0  0  0  0  0  0
   -5.0469   -4.7784    0.3712 N   0  0  0  0  0  0  0  0  0  0  0  0
   -3.8018   -4.8565   -0.0926 N   0  0  0  0  0  0  0  0  0  0  0  0
   -3.4126   -3.5798   -0.2600 C   0  0  0  0  0  0  0  0  0  0  0  0
   -1.9215   -3.3067   -0.7189 C   0  0  0  0  0  0  0  0  0  0  0  0
   -0.9443   -4.2015   -0.6799 N   0  0  0  0  0  0  0  0  0  0  0  0
    0.2143   -3.4919   -0.8945 C   0  0  0  0  0  0  0  0  0  0  0  0
    1.5574   -3.8839   -0.8047 C   0  0  0  0  0  0  0  0  0  0  0  0
    2.5568   -2.9089   -0.9771 C   0  0  0  0  0  0  0  0  0  0  0  0
    2.2360   -1.5768   -1.2930 C   0  0  0  0  0  0  0  0  0  0  0  0
    0.8933   -1.2091   -1.4792 C   0  0  0  0  0  0  0  0  0  0  0  0
   -0.0730   -2.1767   -1.2180 C   0  0  0  0  0  0  0  0  0  0  0  0
   -1.4353   -2.1124   -1.1672 N   0  0  0  0  0  0  0  0  0  0  0  0
    3.3111   -0.5077   -1.3540 C   0  0  0  0  0  0  0  0  0  0  0  0
    3.6377   -0.0199   -0.0021 N   0  0  0  0  0  0  0  0  0  0  0  0
    5.0052   -0.3758    0.4153 C   0  0  0  0  0  0  0  0  0  0  0  0
    6.0083    0.7552    0.1582 C   0  0  0  0  0  0  0  0  0  0  0  0
    5.6868    1.9701    0.8477 O   0  0  0  0  0  0  0  0  0  0  0  0
    4.3107    2.0515    1.2450 C   0  0  0  0  0  0  0  0  0  0  0  0
    3.3555    1.4300    0.1974 C   0  0  0  0  0  0  0  0  0  0  0  0
    1.8826    1.5999    0.6101 C   0  0  0  0  0  0  0  0  0  0  0  0
    1.4180    3.0531    0.7240 C   0  0  0  0  0  0  0  0  0  0  0  0
   -0.0129    3.1281    0.7882 O   0  0  0  0  0  0  0  0  0  0  0  0
   -0.6506    2.9740   -0.4863 C   0  0  0  0  0  0  0  0  0  0  0  0
   -1.6211    1.7917   -0.4608 C   0  0  0  0  0  0  0  0  0  0  0  0
   -3.0378    2.0237    0.0784 C   0  0  0  0  0  0  0  0  0  0  0  0
   -3.8649    3.1231   -0.5605 C   0  0  0  0  0  0  0  0  0  0  0  0
   -3.3746    3.2923    0.8455 C   0  0  0  0  0  0  0  0  0  0  0  0
   -3.7413    0.8177    0.4820 N   0  0  0  0  0  0  0  0  0  0  0  0
   -5.3490   -0.9896    0.8981 H   0  0  0  0  0  0  0  0  0  0  0  0
   -6.4470   -3.3060    0.9955 H   0  0  0  0  0  0  0  0  0  0  0  0
   -5.5414   -5.6457    0.5541 H   0  0  0  0  0  0  0  0  0  0  0  0
    1.8075   -4.9064   -0.5458 H   0  0  0  0  0  0  0  0  0  0  0  0
    3.5958   -3.1970   -0.8340 H   0  0  0  0  0  0  0  0  0  0  0  0
    0.6087   -0.1971   -1.7406 H   0  0  0  0  0  0  0  0  0  0  0  0
   -1.9977   -1.3041   -1.3924 H   0  0  0  0  0  0  0  0  0  0  0  0
    4.1878   -0.9158   -1.8744 H   0  0  0  0  0  0  0  0  0  0  0  0
    2.9624    0.3026   -2.0081 H   0  0  0  0  0  0  0  0  0  0  0  0
    4.9748   -0.5801    1.4931 H   0  0  0  0  0  0  0  0  0  0  0  0
    5.3480   -1.3065   -0.0518 H   0  0  0  0  0  0  0  0  0  0  0  0
    7.0090    0.4514    0.4818 H   0  0  0  0  0  0  0  0  0  0  0  0
    6.0678    0.9823   -0.9125 H   0  0  0  0  0  0  0  0  0  0  0  0
    4.2008    1.5685    2.2237 H   0  0  0  0  0  0  0  0  0  0  0  0
    4.0952    3.1149    1.3871 H   0  0  0  0  0  0  0  0  0  0  0  0
    3.5399    1.9641   -0.7448 H   0  0  0  0  0  0  0  0  0  0  0  0
    1.6889    1.0907    1.5636 H   0  0  0  0  0  0  0  0  0  0  0  0
    1.2458    1.0970   -0.1161 H   0  0  0  0  0  0  0  0  0  0  0  0
    1.7862    3.6713   -0.1031 H   0  0  0  0  0  0  0  0  0  0  0  0
    1.7973    3.4895    1.6534 H   0  0  0  0  0  0  0  0  0  0  0  0
    0.0957    2.7937   -1.2703 H   0  0  0  0  0  0  0  0  0  0  0  0
   -1.1428    3.9173   -0.7380 H   0  0  0  0  0  0  0  0  0  0  0  0
   -1.7274    1.4443   -1.4954 H   0  0  0  0  0  0  0  0  0  0  0  0
   -1.1679    0.9766    0.1163 H   0  0  0  0  0  0  0  0  0  0  0  0
   -3.4189    3.7320   -1.3379 H   0  0  0  0  0  0  0  0  0  0  0  0
   -4.9234    2.9436   -0.7145 H   0  0  0  0  0  0  0  0  0  0  0  0
   -4.1088    3.2421    1.6423 H   0  0  0  0  0  0  0  0  0  0  0  0
   -2.6015    4.0258    1.0402 H   0  0  0  0  0  0  0  0  0  0  0  0
   -4.0244    0.7536    1.4505 H   0  0  0  0  0  0  0  0  0  0  0  0
  1  2  2  0
  2  3  1  0
  3  4  1  0
  4  5  2  0
  5  6  1  0
  6  7  1  0
  7  8  2  0
  8  9  1  0
  9 10  2  0
 10 11  1  0
 11 12  2  0
 12 13  1  0
 13 14  2  0
 14 15  1  0
 15 16  2  0
 16 17  1  0
 14 18  1  0
 18 19  1  0
 19 20  1  0
 20 21  1  0
 21 22  1  0
 22 23  1  0
 23 24  1  0
 24 25  1  0
 25 26  1  0
 26 27  1  0
 27 28  1  0
 28 29  1  0
 29 30  1  0
 30 31  1  0
 31 32  1  0
 30 33  1  0
 33  2  1  0
  8  4  1  0
 17  9  1  0
 24 19  1  0
 32 30  1  0
 16 11  1  0
  3 34  1  0
  5 35  1  0
  6 36  1  0
 12 37  1  0
 13 38  1  0
 15 39  1  0
 17 40  1  0
 18 41  1  0
 18 42  1  0
 20 43  1  0
 20 44  1  0
 21 45  1  0
 21 46  1  0
 23 47  1  0
 23 48  1  0
 24 49  1  0
 25 50  1  0
 25 51  1  0
 26 52  1  0
 26 53  1  0
 28 54  1  0
 28 55  1  0
 29 56  1  0
 29 57  1  0
 31 58  1  0
 31 59  1  0
 32 60  1  0
 32 61  1  0
 33 62  1  0
M  END
>  <candidate_id>  (53) 
CAND_2e11abfe19

>  <source_generator>  (53) 
v5_3_model_guided_macrocycle

>  <parent_mol_id>  (53) 
JAK2_dbe7510318

>  <canonical_smiles>  (53) 
O=C1Nc2c[nH]nc2-c2nc3ccc(cc3[nH]2)CN2CCOCC2CCOCCC2(CC2)N1

>  <inchikey>  (53) 
RLLDBAYFCZKELV-UHFFFAOYSA-N

>  <valid_rdkit>  (53) 
True

>  <unique_flag>  (53) 
True

>  <novel_flag>  (53) 
True

>  <mw>  (53) 
451.531

>  <logp>  (53) 
2.6183

>  <tpsa>  (53) 
120.19

>  <hbd>  (53) 
4

>  <hba>  (53) 
6

>  <rotatable_bonds>  (53) 
0

>  <qed>  (53) 
0.4171

>  <sa_score>  (53) 
4.214

>  <murcko_scaffold>  (53) 
O=C1Nc2c[nH]nc2-c2nc3ccc(cc3[nH]2)CN2CCOCC2CCOCCC2(CC2)N1

>  <max_ring_size>  (53) 
19

>  <has_macrocycle_12_20>  (53) 
True

>  <has_constrained_ring_8_11>  (53) 
False

>  <passes_basic_filters>  (53) 
True

>  <generation_notes>  (53) 
v5_3_model_guided_anchor_pair=25-16;anchor_scores=0.691,0.079;linker_length=5;target_ring=18;linker_prob=0.200;chemotype=oxa

$$$$
CAND_34ad2a24d8
     RDKit          3D

 66 71  0  0  0  0  0  0  0  0999 V2000
    2.8049    0.9400   -0.2656 O   0  0  0  0  0  0  0  0  0  0  0  0
    3.7787    0.9338    0.4748 C   0  0  0  0  0  0  0  0  0  0  0  0
    4.4135    2.0449    0.9647 N   0  0  0  0  0  0  0  0  0  0  0  0
    4.0264    3.3746    0.8438 C   0  0  0  0  0  0  0  0  0  0  0  0
    4.9810    4.3569    1.0278 C   0  0  0  0  0  0  0  0  0  0  0  0
    4.3633    5.5487    0.8202 N   0  0  0  0  0  0  0  0  0  0  0  0
    3.0648    5.4342    0.5623 N   0  0  0  0  0  0  0  0  0  0  0  0
    2.8165    4.1114    0.5943 C   0  0  0  0  0  0  0  0  0  0  0  0
    1.3068    3.6505    0.4563 C   0  0  0  0  0  0  0  0  0  0  0  0
    0.2781    4.4750    0.3098 N   0  0  0  0  0  0  0  0  0  0  0  0
   -0.8438    3.6806    0.2915 C   0  0  0  0  0  0  0  0  0  0  0  0
   -2.1995    4.0120    0.1498 C   0  0  0  0  0  0  0  0  0  0  0  0
   -3.1552    2.9795    0.1681 C   0  0  0  0  0  0  0  0  0  0  0  0
   -2.7752    1.6378    0.3358 C   0  0  0  0  0  0  0  0  0  0  0  0
   -1.4177    1.3071    0.4822 C   0  0  0  0  0  0  0  0  0  0  0  0
   -0.4984    2.3497    0.4444 C   0  0  0  0  0  0  0  0  0  0  0  0
    0.8640    2.3607    0.5138 N   0  0  0  0  0  0  0  0  0  0  0  0
   -3.7994    0.5216    0.3742 C   0  0  0  0  0  0  0  0  0  0  0  0
   -3.6857   -0.3444   -0.8211 N   0  0  0  0  0  0  0  0  0  0  0  0
   -4.7219    0.0366   -1.8109 C   0  0  0  0  0  0  0  0  0  0  0  0
   -6.0277   -0.7861   -1.7170 C   0  0  0  0  0  0  0  0  0  0  0  0
   -6.2871   -1.2318   -0.3817 O   0  0  0  0  0  0  0  0  0  0  0  0
   -5.2354   -2.0741    0.1248 C   0  0  0  0  0  0  0  0  0  0  0  0
   -3.8515   -1.7841   -0.5113 C   0  0  0  0  0  0  0  0  0  0  0  0
   -2.6932   -2.3948    0.3084 C   0  0  0  0  0  0  0  0  0  0  0  0
   -1.3704   -2.4102   -0.4727 C   0  0  0  0  0  0  0  0  0  0  0  0
   -0.2668   -2.8091    0.4116 N   0  0  0  0  0  0  0  0  0  0  0  0
    0.9716   -3.0038   -0.3513 C   0  0  0  0  0  0  0  0  0  0  0  0
    2.1308   -3.3838    0.5812 C   0  0  0  0  0  0  0  0  0  0  0  0
    2.8360   -2.1752    1.2115 C   0  0  0  0  0  0  0  0  0  0  0  0
    3.9857   -1.5428    0.4174 C   0  0  0  0  0  0  0  0  0  0  0  0
    5.1257   -2.4560   -0.0094 C   0  0  0  0  0  0  0  0  0  0  0  0
    4.2230   -1.8671   -1.0482 C   0  0  0  0  0  0  0  0  0  0  0  0
    4.3790   -0.2345    0.8990 N   0  0  0  0  0  0  0  0  0  0  0  0
    5.3585    1.8993    1.2867 H   0  0  0  0  0  0  0  0  0  0  0  0
    6.0364    4.3155    1.2531 H   0  0  0  0  0  0  0  0  0  0  0  0
    4.7620    6.4816    0.8476 H   0  0  0  0  0  0  0  0  0  0  0  0
   -2.4927    5.0478    0.0241 H   0  0  0  0  0  0  0  0  0  0  0  0
   -4.2050    3.2382    0.0516 H   0  0  0  0  0  0  0  0  0  0  0  0
   -1.0933    0.2815    0.6152 H   0  0  0  0  0  0  0  0  0  0  0  0
    1.4535    1.5416    0.5068 H   0  0  0  0  0  0  0  0  0  0  0  0
   -4.8107    0.9316    0.4996 H   0  0  0  0  0  0  0  0  0  0  0  0
   -3.6137   -0.0270    1.3051 H   0  0  0  0  0  0  0  0  0  0  0  0
   -4.3081   -0.0983   -2.8182 H   0  0  0  0  0  0  0  0  0  0  0  0
   -4.9541    1.1073   -1.7466 H   0  0  0  0  0  0  0  0  0  0  0  0
   -5.9859   -1.6624   -2.3754 H   0  0  0  0  0  0  0  0  0  0  0  0
   -6.8761   -0.1743   -2.0401 H   0  0  0  0  0  0  0  0  0  0  0  0
   -5.5207   -3.1155   -0.0624 H   0  0  0  0  0  0  0  0  0  0  0  0
   -5.2110   -1.9310    1.2105 H   0  0  0  0  0  0  0  0  0  0  0  0
   -3.8301   -2.3137   -1.4759 H   0  0  0  0  0  0  0  0  0  0  0  0
   -2.5639   -1.8649    1.2586 H   0  0  0  0  0  0  0  0  0  0  0  0
   -2.9528   -3.4286    0.5737 H   0  0  0  0  0  0  0  0  0  0  0  0
   -1.1563   -1.4259   -0.8994 H   0  0  0  0  0  0  0  0  0  0  0  0
   -1.4649   -3.1184   -1.3052 H   0  0  0  0  0  0  0  0  0  0  0  0
   -0.5094   -3.6788    0.8852 H   0  0  0  0  0  0  0  0  0  0  0  0
    0.8229   -3.8211   -1.0674 H   0  0  0  0  0  0  0  0  0  0  0  0
    1.2203   -2.1009   -0.9202 H   0  0  0  0  0  0  0  0  0  0  0  0
    2.8384   -4.0157    0.0350 H   0  0  0  0  0  0  0  0  0  0  0  0
    1.7453   -4.0209    1.3887 H   0  0  0  0  0  0  0  0  0  0  0  0
    3.2618   -2.4966    2.1714 H   0  0  0  0  0  0  0  0  0  0  0  0
    2.0936   -1.4040    1.4520 H   0  0  0  0  0  0  0  0  0  0  0  0
    6.1423   -2.0810    0.0369 H   0  0  0  0  0  0  0  0  0  0  0  0
    5.0550   -3.5190    0.1878 H   0  0  0  0  0  0  0  0  0  0  0  0
    3.5518   -2.5281   -1.5797 H   0  0  0  0  0  0  0  0  0  0  0  0
    4.6178   -1.0808   -1.6845 H   0  0  0  0  0  0  0  0  0  0  0  0
    5.0681   -0.1951    1.6357 H   0  0  0  0  0  0  0  0  0  0  0  0
  1  2  2  0
  2  3  1  0
  3  4  1  0
  4  5  2  0
  5  6  1  0
  6  7  1  0
  7  8  2  0
  8  9  1  0
  9 10  2  0
 10 11  1  0
 11 12  2  0
 12 13  1  0
 13 14  2  0
 14 15  1  0
 15 16  2  0
 16 17  1  0
 14 18  1  0
 18 19  1  0
 19 20  1  0
 20 21  1  0
 21 22  1  0
 22 23  1  0
 23 24  1  0
 24 25  1  0
 25 26  1  0
 26 27  1  0
 27 28  1  0
 28 29  1  0
 29 30  1  0
 30 31  1  0
 31 32  1  0
 32 33  1  0
 31 34  1  0
 34  2  1  0
  8  4  1  0
 17  9  1  0
 24 19  1  0
 33 31  1  0
 16 11  1  0
  3 35  1  0
  5 36  1  0
  6 37  1  0
 12 38  1  0
 13 39  1  0
 15 40  1  0
 17 41  1  0
 18 42  1  0
 18 43  1  0
 20 44  1  0
 20 45  1  0
 21 46  1  0
 21 47  1  0
 23 48  1  0
 23 49  1  0
 24 50  1  0
 25 51  1  0
 25 52  1  0
 26 53  1  0
 26 54  1  0
 27 55  1  0
 28 56  1  0
 28 57  1  0
 29 58  1  0
 29 59  1  0
 30 60  1  0
 30 61  1  0
 32 62  1  0
 32 63  1  0
 33 64  1  0
 33 65  1  0
 34 66  1  0
M  END
>  <candidate_id>  (54) 
CAND_34ad2a24d8

>  <source_generator>  (54) 
v5_3_model_guided_macrocycle

>  <parent_mol_id>  (54) 
JAK2_dbe7510318

>  <canonical_smiles>  (54) 
O=C1Nc2c[nH]nc2-c2nc3ccc(cc3[nH]2)CN2CCOCC2CCNCCCC2(CC2)N1

>  <inchikey>  (54) 
KLRRCJHYZNWGOL-UHFFFAOYSA-N

>  <valid_rdkit>  (54) 
True

>  <unique_flag>  (54) 
True

>  <novel_flag>  (54) 
True

>  <mw>  (54) 
464.574

>  <logp>  (54) 
2.5814

>  <tpsa>  (54) 
122.99

>  <hbd>  (54) 
5

>  <hba>  (54) 
6

>  <rotatable_bonds>  (54) 
0

>  <qed>  (54) 
0.3485

>  <sa_score>  (54) 
4.287

>  <murcko_scaffold>  (54) 
O=C1Nc2c[nH]nc2-c2nc3ccc(cc3[nH]2)CN2CCOCC2CCNCCCC2(CC2)N1

>  <max_ring_size>  (54) 
20

>  <has_macrocycle_12_20>  (54) 
True

>  <has_constrained_ring_8_11>  (54) 
False

>  <passes_basic_filters>  (54) 
True

>  <generation_notes>  (54) 
v5_3_model_guided_anchor_pair=25-16;anchor_scores=0.691,0.079;linker_length=6;target_ring=19;linker_prob=0.167;chemotype=aza

$$$$
CAND_f4705e122e
     RDKit          3D

 65 70  0  0  0  0  0  0  0  0999 V2000
    5.0475   -0.8061    0.5516 O   0  0  0  0  0  0  0  0  0  0  0  0
    3.8360   -0.7696    0.7150 C   0  0  0  0  0  0  0  0  0  0  0  0
    2.9468   -1.8000    0.4858 N   0  0  0  0  0  0  0  0  0  0  0  0
    3.2500   -3.0815    0.0487 C   0  0  0  0  0  0  0  0  0  0  0  0
    4.4843   -3.6258   -0.2022 C   0  0  0  0  0  0  0  0  0  0  0  0
    4.2532   -4.8344   -0.7929 N   0  0  0  0  0  0  0  0  0  0  0  0
    2.9501   -5.1300   -0.9314 N   0  0  0  0  0  0  0  0  0  0  0  0
    2.3272   -4.1002   -0.3487 C   0  0  0  0  0  0  0  0  0  0  0  0
    0.7656   -3.9897   -0.2112 C   0  0  0  0  0  0  0  0  0  0  0  0
   -0.1494   -4.5831   -0.9536 N   0  0  0  0  0  0  0  0  0  0  0  0
   -1.3011   -3.8599   -0.7311 C   0  0  0  0  0  0  0  0  0  0  0  0
   -2.5360   -3.8862   -1.3925 C   0  0  0  0  0  0  0  0  0  0  0  0
   -3.4974   -2.9166   -1.0566 C   0  0  0  0  0  0  0  0  0  0  0  0
   -3.2570   -1.9626   -0.0514 C   0  0  0  0  0  0  0  0  0  0  0  0
   -2.0725   -2.0192    0.7021 C   0  0  0  0  0  0  0  0  0  0  0  0
   -1.1153   -2.9417    0.2937 C   0  0  0  0  0  0  0  0  0  0  0  0
    0.1644   -3.1658    0.7042 N   0  0  0  0  0  0  0  0  0  0  0  0
   -4.2629   -0.8541    0.2175 C   0  0  0  0  0  0  0  0  0  0  0  0
   -3.6239    0.4698    0.4387 N   0  0  0  0  0  0  0  0  0  0  0  0
   -4.6406    1.4477    0.8887 C   0  0  0  0  0  0  0  0  0  0  0  0
   -5.3139    2.2748   -0.2207 C   0  0  0  0  0  0  0  0  0  0  0  0
   -5.2669    1.5971   -1.4738 O   0  0  0  0  0  0  0  0  0  0  0  0
   -3.9125    1.4143   -1.9125 C   0  0  0  0  0  0  0  0  0  0  0  0
   -2.9352    0.9657   -0.7850 C   0  0  0  0  0  0  0  0  0  0  0  0
   -1.9326    2.0872   -0.3890 C   0  0  0  0  0  0  0  0  0  0  0  0
   -0.8822    2.3403   -1.4771 C   0  0  0  0  0  0  0  0  0  0  0  0
    0.0551    3.8733   -1.1557 S   0  0  0  0  0  0  0  0  0  0  0  0
    1.3905    3.2667   -0.0659 C   0  0  0  0  0  0  0  0  0  0  0  0
    2.4820    2.5322   -0.8455 C   0  0  0  0  0  0  0  0  0  0  0  0
    3.8119    2.4359   -0.0801 C   0  0  0  0  0  0  0  0  0  0  0  0
    3.7296    1.6710    1.2323 C   0  0  0  0  0  0  0  0  0  0  0  0
    4.8385    1.9023    2.2369 C   0  0  0  0  0  0  0  0  0  0  0  0
    3.4782    2.4693    2.4975 C   0  0  0  0  0  0  0  0  0  0  0  0
    3.1444    0.3613    1.1350 N   0  0  0  0  0  0  0  0  0  0  0  0
    1.9843   -1.5205    0.4208 H   0  0  0  0  0  0  0  0  0  0  0  0
    5.4893   -3.2470   -0.0775 H   0  0  0  0  0  0  0  0  0  0  0  0
    4.9354   -5.4967   -1.1482 H   0  0  0  0  0  0  0  0  0  0  0  0
   -2.7106   -4.5980   -2.1919 H   0  0  0  0  0  0  0  0  0  0  0  0
   -4.4309   -2.8962   -1.6166 H   0  0  0  0  0  0  0  0  0  0  0  0
   -1.8808   -1.3073    1.4989 H   0  0  0  0  0  0  0  0  0  0  0  0
    0.6288   -2.7170    1.4774 H   0  0  0  0  0  0  0  0  0  0  0  0
   -4.8037   -1.1555    1.1244 H   0  0  0  0  0  0  0  0  0  0  0  0
   -4.9993   -0.8102   -0.5935 H   0  0  0  0  0  0  0  0  0  0  0  0
   -5.4147    0.9496    1.4869 H   0  0  0  0  0  0  0  0  0  0  0  0
   -4.1668    2.1447    1.5917 H   0  0  0  0  0  0  0  0  0  0  0  0
   -4.8379    3.2564   -0.3283 H   0  0  0  0  0  0  0  0  0  0  0  0
   -6.3654    2.4479    0.0304 H   0  0  0  0  0  0  0  0  0  0  0  0
   -3.9479    0.6416   -2.6882 H   0  0  0  0  0  0  0  0  0  0  0  0
   -3.5919    2.3446   -2.3917 H   0  0  0  0  0  0  0  0  0  0  0  0
   -2.3039    0.1712   -1.2017 H   0  0  0  0  0  0  0  0  0  0  0  0
   -1.4096    1.7968    0.5321 H   0  0  0  0  0  0  0  0  0  0  0  0
   -2.4802    3.0112   -0.1677 H   0  0  0  0  0  0  0  0  0  0  0  0
   -0.2023    1.4884   -1.5724 H   0  0  0  0  0  0  0  0  0  0  0  0
   -1.3622    2.4758   -2.4504 H   0  0  0  0  0  0  0  0  0  0  0  0
    0.9668    2.6372    0.7225 H   0  0  0  0  0  0  0  0  0  0  0  0
    1.8144    4.1541    0.4156 H   0  0  0  0  0  0  0  0  0  0  0  0
    2.1341    1.5289   -1.1177 H   0  0  0  0  0  0  0  0  0  0  0  0
    2.6910    3.0588   -1.7856 H   0  0  0  0  0  0  0  0  0  0  0  0
    4.5463    1.9351   -0.7238 H   0  0  0  0  0  0  0  0  0  0  0  0
    4.1979    3.4491    0.0914 H   0  0  0  0  0  0  0  0  0  0  0  0
    5.6400    2.5832    1.9722 H   0  0  0  0  0  0  0  0  0  0  0  0
    5.1711    1.0612    2.8357 H   0  0  0  0  0  0  0  0  0  0  0  0
    3.3675    3.5460    2.4307 H   0  0  0  0  0  0  0  0  0  0  0  0
    2.8972    2.0212    3.2954 H   0  0  0  0  0  0  0  0  0  0  0  0
    2.1879    0.2635    1.4380 H   0  0  0  0  0  0  0  0  0  0  0  0
  1  2  2  0
  2  3  1  0
  3  4  1  0
  4  5  2  0
  5  6  1  0
  6  7  1  0
  7  8  2  0
  8  9  1  0
  9 10  2  0
 10 11  1  0
 11 12  2  0
 12 13  1  0
 13 14  2  0
 14 15  1  0
 15 16  2  0
 16 17  1  0
 14 18  1  0
 18 19  1  0
 19 20  1  0
 20 21  1  0
 21 22  1  0
 22 23  1  0
 23 24  1  0
 24 25  1  0
 25 26  1  0
 26 27  1  0
 27 28  1  0
 28 29  1  0
 29 30  1  0
 30 31  1  0
 31 32  1  0
 32 33  1  0
 31 34  1  0
 34  2  1  0
  8  4  1  0
 17  9  1  0
 24 19  1  0
 33 31  1  0
 16 11  1  0
  3 35  1  0
  5 36  1  0
  6 37  1  0
 12 38  1  0
 13 39  1  0
 15 40  1  0
 17 41  1  0
 18 42  1  0
 18 43  1  0
 20 44  1  0
 20 45  1  0
 21 46  1  0
 21 47  1  0
 23 48  1  0
 23 49  1  0
 24 50  1  0
 25 51  1  0
 25 52  1  0
 26 53  1  0
 26 54  1  0
 28 55  1  0
 28 56  1  0
 29 57  1  0
 29 58  1  0
 30 59  1  0
 30 60  1  0
 32 61  1  0
 32 62  1  0
 33 63  1  0
 33 64  1  0
 34 65  1  0
M  END
>  <candidate_id>  (55) 
CAND_f4705e122e

>  <source_generator>  (55) 
v5_3_model_guided_macrocycle

>  <parent_mol_id>  (55) 
JAK2_dbe7510318

>  <canonical_smiles>  (55) 
O=C1Nc2c[nH]nc2-c2nc3ccc(cc3[nH]2)CN2CCOCC2CCSCCCC2(CC2)N1

>  <inchikey>  (55) 
VJOULSRJDRNRML-UHFFFAOYSA-N

>  <valid_rdkit>  (55) 
True

>  <unique_flag>  (55) 
True

>  <novel_flag>  (55) 
True

>  <mw>  (55) 
481.626

>  <logp>  (55) 
3.725

>  <tpsa>  (55) 
110.96

>  <hbd>  (55) 
4

>  <hba>  (55) 
6

>  <rotatable_bonds>  (55) 
0

>  <qed>  (55) 
0.3895

>  <sa_score>  (55) 
4.381

>  <murcko_scaffold>  (55) 
O=C1Nc2c[nH]nc2-c2nc3ccc(cc3[nH]2)CN2CCOCC2CCSCCCC2(CC2)N1

>  <max_ring_size>  (55) 
20

>  <has_macrocycle_12_20>  (55) 
True

>  <has_constrained_ring_8_11>  (55) 
False

>  <passes_basic_filters>  (55) 
True

>  <generation_notes>  (55) 
v5_3_model_guided_anchor_pair=25-16;anchor_scores=0.691,0.079;linker_length=6;target_ring=19;linker_prob=0.167;chemotype=thioether

$$$$
CAND_94f502517a
     RDKit          3D

 64 69  0  0  0  0  0  0  0  0999 V2000
    2.9080   -0.5505   -0.2356 O   0  0  0  0  0  0  0  0  0  0  0  0
    3.7470   -0.3100    0.6210 C   0  0  0  0  0  0  0  0  0  0  0  0
    4.4261   -1.2406    1.3592 N   0  0  0  0  0  0  0  0  0  0  0  0
    4.0906   -2.5564    1.6554 C   0  0  0  0  0  0  0  0  0  0  0  0
    5.0175   -3.3146    2.3476 C   0  0  0  0  0  0  0  0  0  0  0  0
    4.4286   -4.5060    2.6228 N   0  0  0  0  0  0  0  0  0  0  0  0
    3.1774   -4.5878    2.1864 N   0  0  0  0  0  0  0  0  0  0  0  0
    2.9485   -3.4253    1.5462 C   0  0  0  0  0  0  0  0  0  0  0  0
    1.5181   -3.2497    0.8890 C   0  0  0  0  0  0  0  0  0  0  0  0
    0.4839   -4.0397    1.1408 N   0  0  0  0  0  0  0  0  0  0  0  0
   -0.5809   -3.4937    0.4678 C   0  0  0  0  0  0  0  0  0  0  0  0
   -1.9364   -3.8481    0.4690 C   0  0  0  0  0  0  0  0  0  0  0  0
   -2.8345   -3.0733   -0.2839 C   0  0  0  0  0  0  0  0  0  0  0  0
   -2.3931   -1.9973   -1.0752 C   0  0  0  0  0  0  0  0  0  0  0  0
   -1.0233   -1.6808   -1.1228 C   0  0  0  0  0  0  0  0  0  0  0  0
   -0.1718   -2.4178   -0.3014 C   0  0  0  0  0  0  0  0  0  0  0  0
    1.1587   -2.2931   -0.0153 N   0  0  0  0  0  0  0  0  0  0  0  0
   -3.3979   -1.1432   -1.8312 C   0  0  0  0  0  0  0  0  0  0  0  0
   -3.9251   -0.0361   -1.0082 N   0  0  0  0  0  0  0  0  0  0  0  0
   -5.2027    0.4762   -1.5466 C   0  0  0  0  0  0  0  0  0  0  0  0
   -5.0505    1.3439   -2.8031 C   0  0  0  0  0  0  0  0  0  0  0  0
   -4.1785    2.4504   -2.5560 O   0  0  0  0  0  0  0  0  0  0  0  0
   -2.8839    1.9908   -2.1437 C   0  0  0  0  0  0  0  0  0  0  0  0
   -2.9505    1.0884   -0.8843 C   0  0  0  0  0  0  0  0  0  0  0  0
   -3.2334    1.9353    0.3905 C   0  0  0  0  0  0  0  0  0  0  0  0
   -2.0270    2.6602    0.8254 N   0  0  0  0  0  0  0  0  0  0  0  0
   -1.2143    1.8356    1.7104 C   0  0  0  0  0  0  0  0  0  0  0  0
    0.0476    2.4601    1.9091 O   0  0  0  0  0  0  0  0  0  0  0  0
    1.0459    1.9227    1.0355 C   0  0  0  0  0  0  0  0  0  0  0  0
    2.3359    2.7175    1.2186 C   0  0  0  0  0  0  0  0  0  0  0  0
    3.5025    2.1649    0.4110 C   0  0  0  0  0  0  0  0  0  0  0  0
    4.4454    3.1859   -0.2022 C   0  0  0  0  0  0  0  0  0  0  0  0
    3.5173    2.4098   -1.0828 C   0  0  0  0  0  0  0  0  0  0  0  0
    4.1163    0.9777    0.9615 N   0  0  0  0  0  0  0  0  0  0  0  0
    5.3209   -0.9386    1.7158 H   0  0  0  0  0  0  0  0  0  0  0  0
    6.0231   -3.1082    2.6837 H   0  0  0  0  0  0  0  0  0  0  0  0
    4.8117   -5.3018    3.1231 H   0  0  0  0  0  0  0  0  0  0  0  0
   -2.2799   -4.6794    1.0739 H   0  0  0  0  0  0  0  0  0  0  0  0
   -3.8950   -3.3136   -0.2389 H   0  0  0  0  0  0  0  0  0  0  0  0
   -0.6451   -0.8596   -1.7221 H   0  0  0  0  0  0  0  0  0  0  0  0
    1.7790   -1.5905   -0.3938 H   0  0  0  0  0  0  0  0  0  0  0  0
   -2.9559   -0.7918   -2.7716 H   0  0  0  0  0  0  0  0  0  0  0  0
   -4.2180   -1.8111   -2.1283 H   0  0  0  0  0  0  0  0  0  0  0  0
   -5.8980   -0.3490   -1.7407 H   0  0  0  0  0  0  0  0  0  0  0  0
   -5.6740    1.0815   -0.7620 H   0  0  0  0  0  0  0  0  0  0  0  0
   -6.0255    1.7513   -3.0890 H   0  0  0  0  0  0  0  0  0  0  0  0
   -4.6733    0.7648   -3.6538 H   0  0  0  0  0  0  0  0  0  0  0  0
   -2.4229    1.4558   -2.9826 H   0  0  0  0  0  0  0  0  0  0  0  0
   -2.2661    2.8753   -1.9571 H   0  0  0  0  0  0  0  0  0  0  0  0
   -1.9509    0.6752   -0.7436 H   0  0  0  0  0  0  0  0  0  0  0  0
   -3.6124    1.3075    1.2075 H   0  0  0  0  0  0  0  0  0  0  0  0
   -4.0201    2.6688    0.1766 H   0  0  0  0  0  0  0  0  0  0  0  0
   -2.2943    3.4859    1.3585 H   0  0  0  0  0  0  0  0  0  0  0  0
   -1.0853    0.8098    1.3443 H   0  0  0  0  0  0  0  0  0  0  0  0
   -1.6990    1.7693    2.6910 H   0  0  0  0  0  0  0  0  0  0  0  0
    1.2042    0.8708    1.2947 H   0  0  0  0  0  0  0  0  0  0  0  0
    0.7075    1.9823   -0.0056 H   0  0  0  0  0  0  0  0  0  0  0  0
    2.1387    3.7646    0.9531 H   0  0  0  0  0  0  0  0  0  0  0  0
    2.6078    2.7390    2.2820 H   0  0  0  0  0  0  0  0  0  0  0  0
    4.2415    4.2416   -0.0609 H   0  0  0  0  0  0  0  0  0  0  0  0
    5.5024    2.9527   -0.2630 H   0  0  0  0  0  0  0  0  0  0  0  0
    3.9408    1.6464   -1.7261 H   0  0  0  0  0  0  0  0  0  0  0  0
    2.6813    2.9360   -1.5303 H   0  0  0  0  0  0  0  0  0  0  0  0
    4.7450    1.1099    1.7415 H   0  0  0  0  0  0  0  0  0  0  0  0
  1  2  2  0
  2  3  1  0
  3  4  1  0
  4  5  2  0
  5  6  1  0
  6  7  1  0
  7  8  2  0
  8  9  1  0
  9 10  2  0
 10 11  1  0
 11 12  2  0
 12 13  1  0
 13 14  2  0
 14 15  1  0
 15 16  2  0
 16 17  1  0
 14 18  1  0
 18 19  1  0
 19 20  1  0
 20 21  1  0
 21 22  1  0
 22 23  1  0
 23 24  1  0
 24 25  1  0
 25 26  1  0
 26 27  1  0
 27 28  1  0
 28 29  1  0
 29 30  1  0
 30 31  1  0
 31 32  1  0
 32 33  1  0
 31 34  1  0
 34  2  1  0
  8  4  1  0
 17  9  1  0
 24 19  1  0
 33 31  1  0
 16 11  1  0
  3 35  1  0
  5 36  1  0
  6 37  1  0
 12 38  1  0
 13 39  1  0
 15 40  1  0
 17 41  1  0
 18 42  1  0
 18 43  1  0
 20 44  1  0
 20 45  1  0
 21 46  1  0
 21 47  1  0
 23 48  1  0
 23 49  1  0
 24 50  1  0
 25 51  1  0
 25 52  1  0
 26 53  1  0
 27 54  1  0
 27 55  1  0
 29 56  1  0
 29 57  1  0
 30 58  1  0
 30 59  1  0
 32 60  1  0
 32 61  1  0
 33 62  1  0
 33 63  1  0
 34 64  1  0
M  END
>  <candidate_id>  (56) 
CAND_94f502517a

>  <source_generator>  (56) 
v5_3_model_guided_macrocycle

>  <parent_mol_id>  (56) 
JAK2_dbe7510318

>  <canonical_smiles>  (56) 
O=C1Nc2c[nH]nc2-c2nc3ccc(cc3[nH]2)CN2CCOCC2CNCOCCC2(CC2)N1

>  <inchikey>  (56) 
YCUVWDZLVPZCAW-UHFFFAOYSA-N

>  <valid_rdkit>  (56) 
True

>  <unique_flag>  (56) 
True

>  <novel_flag>  (56) 
True

>  <mw>  (56) 
466.546

>  <logp>  (56) 
1.7753

>  <tpsa>  (56) 
132.22

>  <hbd>  (56) 
5

>  <hba>  (56) 
7

>  <rotatable_bonds>  (56) 
0

>  <qed>  (56) 
0.3411

>  <sa_score>  (56) 
4.297

>  <murcko_scaffold>  (56) 
O=C1Nc2c[nH]nc2-c2nc3ccc(cc3[nH]2)CN2CCOCC2CNCOCCC2(CC2)N1

>  <max_ring_size>  (56) 
20

>  <has_macrocycle_12_20>  (56) 
True

>  <has_constrained_ring_8_11>  (56) 
False

>  <passes_basic_filters>  (56) 
True

>  <generation_notes>  (56) 
v5_3_model_guided_anchor_pair=25-16;anchor_scores=0.691,0.079;linker_length=6;target_ring=19;linker_prob=0.167;chemotype=oxa_aza

$$$$
CAND_c9a78f3f99
     RDKit          3D

 65 70  0  0  0  0  0  0  0  0999 V2000
    2.7851    0.7804    0.8023 O   0  0  0  0  0  0  0  0  0  0  0  0
    3.6490    0.5847   -0.0404 C   0  0  0  0  0  0  0  0  0  0  0  0
    4.3188    1.5535   -0.7385 N   0  0  0  0  0  0  0  0  0  0  0  0
    3.9985    2.8904   -0.9222 C   0  0  0  0  0  0  0  0  0  0  0  0
    4.9687    3.7203   -1.4533 C   0  0  0  0  0  0  0  0  0  0  0  0
    4.4020    4.9441   -1.6027 N   0  0  0  0  0  0  0  0  0  0  0  0
    3.1226    4.9777   -1.2503 N   0  0  0  0  0  0  0  0  0  0  0  0
    2.8454    3.7383   -0.8007 C   0  0  0  0  0  0  0  0  0  0  0  0
    1.3550    3.4687   -0.3374 C   0  0  0  0  0  0  0  0  0  0  0  0
    0.3622    4.3183   -0.5568 N   0  0  0  0  0  0  0  0  0  0  0  0
   -0.7763    3.6874   -0.1290 C   0  0  0  0  0  0  0  0  0  0  0  0
   -2.1137    4.0933   -0.2022 C   0  0  0  0  0  0  0  0  0  0  0  0
   -3.1042    3.2218    0.2749 C   0  0  0  0  0  0  0  0  0  0  0  0
   -2.7813    1.9760    0.8479 C   0  0  0  0  0  0  0  0  0  0  0  0
   -1.4316    1.6106    0.9959 C   0  0  0  0  0  0  0  0  0  0  0  0
   -0.4739    2.4649    0.4470 C   0  0  0  0  0  0  0  0  0  0  0  0
    0.8848    2.3630    0.3142 N   0  0  0  0  0  0  0  0  0  0  0  0
   -3.9191    1.0788    1.3163 C   0  0  0  0  0  0  0  0  0  0  0  0
   -3.6121   -0.3675    1.4124 N   0  0  0  0  0  0  0  0  0  0  0  0
   -4.7519   -1.0791    2.0230 C   0  0  0  0  0  0  0  0  0  0  0  0
   -6.0185   -1.1193    1.1423 C   0  0  0  0  0  0  0  0  0  0  0  0
   -5.7426   -1.1254   -0.2660 O   0  0  0  0  0  0  0  0  0  0  0  0
   -4.4930   -1.7582   -0.5479 C   0  0  0  0  0  0  0  0  0  0  0  0
   -3.3080   -0.9753    0.0825 C   0  0  0  0  0  0  0  0  0  0  0  0
   -2.0983   -1.9132    0.2656 C   0  0  0  0  0  0  0  0  0  0  0  0
   -1.3492   -2.1953   -1.0321 C   0  0  0  0  0  0  0  0  0  0  0  0
   -0.3642   -3.1854   -0.7392 O   0  0  0  0  0  0  0  0  0  0  0  0
    0.6626   -3.2867   -1.7182 C   0  0  0  0  0  0  0  0  0  0  0  0
    1.8219   -2.3296   -1.4324 C   0  0  0  0  0  0  0  0  0  0  0  0
    2.2347   -2.3324    0.0438 C   0  0  0  0  0  0  0  0  0  0  0  0
    3.6767   -1.8910    0.2643 C   0  0  0  0  0  0  0  0  0  0  0  0
    4.7148   -2.9890    0.4065 C   0  0  0  0  0  0  0  0  0  0  0  0
    4.2860   -2.2128    1.6132 C   0  0  0  0  0  0  0  0  0  0  0  0
    4.0917   -0.6762   -0.3915 N   0  0  0  0  0  0  0  0  0  0  0  0
    5.2319    1.2828   -1.0728 H   0  0  0  0  0  0  0  0  0  0  0  0
    5.9975    3.5517   -1.7360 H   0  0  0  0  0  0  0  0  0  0  0  0
    4.8205    5.7976   -1.9587 H   0  0  0  0  0  0  0  0  0  0  0  0
   -2.3682    5.0489   -0.6459 H   0  0  0  0  0  0  0  0  0  0  0  0
   -4.1455    3.5267    0.1869 H   0  0  0  0  0  0  0  0  0  0  0  0
   -1.1415    0.6831    1.4756 H   0  0  0  0  0  0  0  0  0  0  0  0
    1.4546    1.5994    0.6535 H   0  0  0  0  0  0  0  0  0  0  0  0
   -4.2012    1.4469    2.3116 H   0  0  0  0  0  0  0  0  0  0  0  0
   -4.7776    1.2391    0.6519 H   0  0  0  0  0  0  0  0  0  0  0  0
   -4.9949   -0.6657    3.0097 H   0  0  0  0  0  0  0  0  0  0  0  0
   -4.4336   -2.1109    2.2241 H   0  0  0  0  0  0  0  0  0  0  0  0
   -6.6121   -2.0086    1.3805 H   0  0  0  0  0  0  0  0  0  0  0  0
   -6.6455   -0.2433    1.3386 H   0  0  0  0  0  0  0  0  0  0  0  0
   -4.3775   -1.7891   -1.6365 H   0  0  0  0  0  0  0  0  0  0  0  0
   -4.5406   -2.7965   -0.1968 H   0  0  0  0  0  0  0  0  0  0  0  0
   -3.0257   -0.1888   -0.6277 H   0  0  0  0  0  0  0  0  0  0  0  0
   -1.3741   -1.4853    0.9703 H   0  0  0  0  0  0  0  0  0  0  0  0
   -2.4090   -2.8587    0.7302 H   0  0  0  0  0  0  0  0  0  0  0  0
   -0.8787   -1.2760   -1.3984 H   0  0  0  0  0  0  0  0  0  0  0  0
   -2.0179   -2.5885   -1.8042 H   0  0  0  0  0  0  0  0  0  0  0  0
    1.0392   -4.3145   -1.6705 H   0  0  0  0  0  0  0  0  0  0  0  0
    0.2627   -3.1377   -2.7280 H   0  0  0  0  0  0  0  0  0  0  0  0
    1.5320   -1.3087   -1.7091 H   0  0  0  0  0  0  0  0  0  0  0  0
    2.6657   -2.6031   -2.0769 H   0  0  0  0  0  0  0  0  0  0  0  0
    1.5655   -1.6740    0.6115 H   0  0  0  0  0  0  0  0  0  0  0  0
    2.0989   -3.3394    0.4595 H   0  0  0  0  0  0  0  0  0  0  0  0
    4.3963   -4.0231    0.3334 H   0  0  0  0  0  0  0  0  0  0  0  0
    5.7171   -2.8170    0.0317 H   0  0  0  0  0  0  0  0  0  0  0  0
    4.9832   -1.5030    2.0440 H   0  0  0  0  0  0  0  0  0  0  0  0
    3.6668   -2.7107    2.3515 H   0  0  0  0  0  0  0  0  0  0  0  0
    4.6691   -0.7689   -1.2147 H   0  0  0  0  0  0  0  0  0  0  0  0
  1  2  2  0
  2  3  1  0
  3  4  1  0
  4  5  2  0
  5  6  1  0
  6  7  1  0
  7  8  2  0
  8  9  1  0
  9 10  2  0
 10 11  1  0
 11 12  2  0
 12 13  1  0
 13 14  2  0
 14 15  1  0
 15 16  2  0
 16 17  1  0
 14 18  1  0
 18 19  1  0
 19 20  1  0
 20 21  1  0
 21 22  1  0
 22 23  1  0
 23 24  1  0
 24 25  1  0
 25 26  1  0
 26 27  1  0
 27 28  1  0
 28 29  1  0
 29 30  1  0
 30 31  1  0
 31 32  1  0
 32 33  1  0
 31 34  1  0
 34  2  1  0
  8  4  1  0
 17  9  1  0
 24 19  1  0
 33 31  1  0
 16 11  1  0
  3 35  1  0
  5 36  1  0
  6 37  1  0
 12 38  1  0
 13 39  1  0
 15 40  1  0
 17 41  1  0
 18 42  1  0
 18 43  1  0
 20 44  1  0
 20 45  1  0
 21 46  1  0
 21 47  1  0
 23 48  1  0
 23 49  1  0
 24 50  1  0
 25 51  1  0
 25 52  1  0
 26 53  1  0
 26 54  1  0
 28 55  1  0
 28 56  1  0
 29 57  1  0
 29 58  1  0
 30 59  1  0
 30 60  1  0
 32 61  1  0
 32 62  1  0
 33 63  1  0
 33 64  1  0
 34 65  1  0
M  END
>  <candidate_id>  (57) 
CAND_c9a78f3f99

>  <source_generator>  (57) 
v5_3_model_guided_macrocycle

>  <parent_mol_id>  (57) 
JAK2_dbe7510318

>  <canonical_smiles>  (57) 
O=C1Nc2c[nH]nc2-c2nc3ccc(cc3[nH]2)CN2CCOCC2CCOCCCC2(CC2)N1

>  <inchikey>  (57) 
SIVADZRFAMKRHQ-UHFFFAOYSA-N

>  <valid_rdkit>  (57) 
True

>  <unique_flag>  (57) 
True

>  <novel_flag>  (57) 
True

>  <mw>  (57) 
465.558

>  <logp>  (57) 
3.0084

>  <tpsa>  (57) 
120.19

>  <hbd>  (57) 
4

>  <hba>  (57) 
6

>  <rotatable_bonds>  (57) 
0

>  <qed>  (57) 
0.4051

>  <sa_score>  (57) 
4.292

>  <murcko_scaffold>  (57) 
O=C1Nc2c[nH]nc2-c2nc3ccc(cc3[nH]2)CN2CCOCC2CCOCCCC2(CC2)N1

>  <max_ring_size>  (57) 
20

>  <has_macrocycle_12_20>  (57) 
True

>  <has_constrained_ring_8_11>  (57) 
False

>  <passes_basic_filters>  (57) 
True

>  <generation_notes>  (57) 
v5_3_model_guided_anchor_pair=25-16;anchor_scores=0.691,0.079;linker_length=6;target_ring=19;linker_prob=0.167;chemotype=oxa

$$$$
CAND_0dab0539d2
     RDKit          3D

 67 72  0  0  0  0  0  0  0  0999 V2000
   -2.3049    0.5327    0.9342 O   0  0  0  0  0  0  0  0  0  0  0  0
   -3.5200    0.4191    1.0100 C   0  0  0  0  0  0  0  0  0  0  0  0
   -4.4136    1.4495    1.1337 N   0  0  0  0  0  0  0  0  0  0  0  0
   -4.1646    2.8182    1.1376 C   0  0  0  0  0  0  0  0  0  0  0  0
   -5.1612    3.6554    1.6047 C   0  0  0  0  0  0  0  0  0  0  0  0
   -4.6639    4.9184    1.5710 N   0  0  0  0  0  0  0  0  0  0  0  0
   -3.4310    4.9876    1.0826 N   0  0  0  0  0  0  0  0  0  0  0  0
   -3.1037    3.7191    0.7704 C   0  0  0  0  0  0  0  0  0  0  0  0
   -1.7127    3.4978    0.0420 C   0  0  0  0  0  0  0  0  0  0  0  0
   -0.8321    4.4596   -0.2004 N   0  0  0  0  0  0  0  0  0  0  0  0
    0.2463    3.8451   -0.7893 C   0  0  0  0  0  0  0  0  0  0  0  0
    1.4881    4.3611   -1.1849 C   0  0  0  0  0  0  0  0  0  0  0  0
    2.4492    3.4792   -1.7115 C   0  0  0  0  0  0  0  0  0  0  0  0
    2.1816    2.1068   -1.8677 C   0  0  0  0  0  0  0  0  0  0  0  0
    0.9061    1.6090   -1.5439 C   0  0  0  0  0  0  0  0  0  0  0  0
   -0.0033    2.4974   -0.9763 C   0  0  0  0  0  0  0  0  0  0  0  0
   -1.2503    2.3115   -0.4510 N   0  0  0  0  0  0  0  0  0  0  0  0
    3.2658    1.1835   -2.4088 C   0  0  0  0  0  0  0  0  0  0  0  0
    3.0849   -0.2336   -2.0423 N   0  0  0  0  0  0  0  0  0  0  0  0
    3.9353   -1.1278   -2.8520 C   0  0  0  0  0  0  0  0  0  0  0  0
    5.3912   -1.2164   -2.3785 C   0  0  0  0  0  0  0  0  0  0  0  0
    5.4579   -1.5997   -1.0013 O   0  0  0  0  0  0  0  0  0  0  0  0
    4.7722   -0.6397   -0.1902 C   0  0  0  0  0  0  0  0  0  0  0  0
    3.2841   -0.4885   -0.5857 C   0  0  0  0  0  0  0  0  0  0  0  0
    2.4199   -1.7152   -0.2003 C   0  0  0  0  0  0  0  0  0  0  0  0
    2.2912   -1.9104    1.3167 C   0  0  0  0  0  0  0  0  0  0  0  0
    1.1454   -2.8572    1.6950 C   0  0  0  0  0  0  0  0  0  0  0  0
   -0.2294   -2.1747    1.6555 C   0  0  0  0  0  0  0  0  0  0  0  0
   -1.3450   -3.1582    2.0288 C   0  0  0  0  0  0  0  0  0  0  0  0
   -2.7214   -2.4996    2.1523 C   0  0  0  0  0  0  0  0  0  0  0  0
   -3.4074   -2.0551    0.8594 C   0  0  0  0  0  0  0  0  0  0  0  0
   -2.8900   -2.4473   -0.5170 C   0  0  0  0  0  0  0  0  0  0  0  0
   -4.0694   -3.1629    0.0523 C   0  0  0  0  0  0  0  0  0  0  0  0
   -4.1431   -0.8133    0.9792 N   0  0  0  0  0  0  0  0  0  0  0  0
   -5.3531    1.1878    1.3907 H   0  0  0  0  0  0  0  0  0  0  0  0
   -6.1539    3.4657    1.9856 H   0  0  0  0  0  0  0  0  0  0  0  0
   -5.1094    5.7825    1.8627 H   0  0  0  0  0  0  0  0  0  0  0  0
    1.7032    5.4152   -1.0521 H   0  0  0  0  0  0  0  0  0  0  0  0
    3.4224    3.8798   -1.9879 H   0  0  0  0  0  0  0  0  0  0  0  0
    0.6532    0.5615   -1.6727 H   0  0  0  0  0  0  0  0  0  0  0  0
   -1.6920    1.4152   -0.3073 H   0  0  0  0  0  0  0  0  0  0  0  0
    4.2500    1.5423   -2.0841 H   0  0  0  0  0  0  0  0  0  0  0  0
    3.2239    1.2861   -3.5009 H   0  0  0  0  0  0  0  0  0  0  0  0
    3.9013   -0.8448   -3.9108 H   0  0  0  0  0  0  0  0  0  0  0  0
    3.4973   -2.1324   -2.8042 H   0  0  0  0  0  0  0  0  0  0  0  0
    5.9216   -1.9785   -2.9583 H   0  0  0  0  0  0  0  0  0  0  0  0
    5.9205   -0.2668   -2.5198 H   0  0  0  0  0  0  0  0  0  0  0  0
    5.2922    0.3227   -0.2741 H   0  0  0  0  0  0  0  0  0  0  0  0
    4.8715   -0.9573    0.8518 H   0  0  0  0  0  0  0  0  0  0  0  0
    2.8864    0.3518   -0.0039 H   0  0  0  0  0  0  0  0  0  0  0  0
    2.8262   -2.6340   -0.6404 H   0  0  0  0  0  0  0  0  0  0  0  0
    1.4190   -1.5823   -0.6281 H   0  0  0  0  0  0  0  0  0  0  0  0
    3.2278   -2.3353    1.6964 H   0  0  0  0  0  0  0  0  0  0  0  0
    2.1505   -0.9468    1.8203 H   0  0  0  0  0  0  0  0  0  0  0  0
    1.1529   -3.7359    1.0391 H   0  0  0  0  0  0  0  0  0  0  0  0
    1.3228   -3.2200    2.7152 H   0  0  0  0  0  0  0  0  0  0  0  0
   -0.4151   -1.7552    0.6628 H   0  0  0  0  0  0  0  0  0  0  0  0
   -0.2329   -1.3348    2.3611 H   0  0  0  0  0  0  0  0  0  0  0  0
   -1.3733   -3.9911    1.3177 H   0  0  0  0  0  0  0  0  0  0  0  0
   -1.1009   -3.5985    3.0044 H   0  0  0  0  0  0  0  0  0  0  0  0
   -2.6330   -1.6443    2.8347 H   0  0  0  0  0  0  0  0  0  0  0  0
   -3.3949   -3.2048    2.6575 H   0  0  0  0  0  0  0  0  0  0  0  0
   -1.9678   -3.0035   -0.6233 H   0  0  0  0  0  0  0  0  0  0  0  0
   -3.0563   -1.7570   -1.3376 H   0  0  0  0  0  0  0  0  0  0  0  0
   -5.0355   -2.9783   -0.4027 H   0  0  0  0  0  0  0  0  0  0  0  0
   -3.9274   -4.1923    0.3639 H   0  0  0  0  0  0  0  0  0  0  0  0
   -5.1497   -0.8677    1.0203 H   0  0  0  0  0  0  0  0  0  0  0  0
  1  2  2  0
  2  3  1  0
  3  4  1  0
  4  5  2  0
  5  6  1  0
  6  7  1  0
  7  8  2  0
  8  9  1  0
  9 10  2  0
 10 11  1  0
 11 12  2  0
 12 13  1  0
 13 14  2  0
 14 15  1  0
 15 16  2  0
 16 17  1  0
 14 18  1  0
 18 19  1  0
 19 20  1  0
 20 21  1  0
 21 22  1  0
 22 23  1  0
 23 24  1  0
 24 25  1  0
 25 26  1  0
 26 27  1  0
 27 28  1  0
 28 29  1  0
 29 30  1  0
 30 31  1  0
 31 32  1  0
 32 33  1  0
 31 34  1  0
 34  2  1  0
  8  4  1  0
 17  9  1  0
 24 19  1  0
 33 31  1  0
 16 11  1  0
  3 35  1  0
  5 36  1  0
  6 37  1  0
 12 38  1  0
 13 39  1  0
 15 40  1  0
 17 41  1  0
 18 42  1  0
 18 43  1  0
 20 44  1  0
 20 45  1  0
 21 46  1  0
 21 47  1  0
 23 48  1  0
 23 49  1  0
 24 50  1  0
 25 51  1  0
 25 52  1  0
 26 53  1  0
 26 54  1  0
 27 55  1  0
 27 56  1  0
 28 57  1  0
 28 58  1  0
 29 59  1  0
 29 60  1  0
 30 61  1  0
 30 62  1  0
 32 63  1  0
 32 64  1  0
 33 65  1  0
 33 66  1  0
 34 67  1  0
M  END
>  <candidate_id>  (58) 
CAND_0dab0539d2

>  <source_generator>  (58) 
v5_3_model_guided_macrocycle

>  <parent_mol_id>  (58) 
JAK2_dbe7510318

>  <canonical_smiles>  (58) 
O=C1Nc2c[nH]nc2-c2nc3ccc(cc3[nH]2)CN2CCOCC2CCCCCCC2(CC2)N1

>  <inchikey>  (58) 
LEBUQUSWIHAWPD-UHFFFAOYSA-N

>  <valid_rdkit>  (58) 
True

>  <unique_flag>  (58) 
True

>  <novel_flag>  (58) 
True

>  <mw>  (58) 
463.586

>  <logp>  (58) 
4.1621

>  <tpsa>  (58) 
110.96

>  <hbd>  (58) 
4

>  <hba>  (58) 
5

>  <rotatable_bonds>  (58) 
0

>  <qed>  (58) 
0.4

>  <sa_score>  (58) 
4.281

>  <murcko_scaffold>  (58) 
O=C1Nc2c[nH]nc2-c2nc3ccc(cc3[nH]2)CN2CCOCC2CCCCCCC2(CC2)N1

>  <max_ring_size>  (58) 
20

>  <has_macrocycle_12_20>  (58) 
True

>  <has_constrained_ring_8_11>  (58) 
False

>  <passes_basic_filters>  (58) 
True

>  <generation_notes>  (58) 
v5_3_model_guided_anchor_pair=25-16;anchor_scores=0.691,0.079;linker_length=6;target_ring=19;linker_prob=0.167;chemotype=alkyl

$$$$
CAND_35c4ee0b09
     RDKit          3D

 68 74  0  0  0  0  0  0  0  0999 V2000
   -7.9576   -1.4517   -1.0615 N   0  0  0  0  0  0  0  0  0  0  0  0
   -6.6780   -1.8529   -0.8047 C   0  0  0  0  0  0  0  0  0  0  0  0
   -6.3125   -2.9893   -1.0900 O   0  0  0  0  0  0  0  0  0  0  0  0
   -5.7470   -0.9022   -0.1640 C   0  0  0  0  0  0  0  0  0  0  0  0
   -5.9803    0.4579    0.0080 C   0  0  0  0  0  0  0  0  0  0  0  0
   -5.0920    1.3564    0.5148 N   0  0  0  0  0  0  0  0  0  0  0  0
   -3.8714    0.9294    0.9161 C   0  0  0  0  0  0  0  0  0  0  0  0
   -3.6106   -0.4593    0.9275 C   0  0  0  0  0  0  0  0  0  0  0  0
   -4.5013   -1.3286    0.3038 C   0  0  0  0  0  0  0  0  0  0  0  0
   -3.8715   -2.5569    0.2208 N   0  0  0  0  0  0  0  0  0  0  0  0
   -2.5968   -2.4777    0.7336 C   0  0  0  0  0  0  0  0  0  0  0  0
   -1.4871   -3.3295    0.6196 C   0  0  0  0  0  0  0  0  0  0  0  0
   -0.2722   -2.8723    1.1757 C   0  0  0  0  0  0  0  0  0  0  0  0
   -0.2946   -1.7967    2.0828 C   0  0  0  0  0  0  0  0  0  0  0  0
   -1.4081   -0.9756    2.1927 C   0  0  0  0  0  0  0  0  0  0  0  0
   -2.5200   -1.2527    1.3883 C   0  0  0  0  0  0  0  0  0  0  0  0
    1.0437   -3.2016    0.5837 C   0  0  0  0  0  0  0  0  0  0  0  0
    1.1899   -3.1092   -0.7948 C   0  0  0  0  0  0  0  0  0  0  0  0
    2.3534   -2.5358   -1.2931 C   0  0  0  0  0  0  0  0  0  0  0  0
    3.3376   -2.1147   -0.4125 C   0  0  0  0  0  0  0  0  0  0  0  0
    3.2704   -2.4894    0.8812 N   0  0  0  0  0  0  0  0  0  0  0  0
    2.1177   -3.0323    1.3883 N   0  0  0  0  0  0  0  0  0  0  0  0
    4.3169   -1.2176   -0.8148 N   0  0  0  0  0  0  0  0  0  0  0  0
    5.6609   -1.4130   -0.2671 C   0  0  0  0  0  0  0  0  0  0  0  0
    6.1978   -0.1560    0.3681 C   0  0  0  0  0  0  0  0  0  0  0  0
    6.3472    1.1122   -0.8669 S   0  0  0  0  0  0  0  0  0  0  0  0
    5.9396    2.3696   -0.2673 O   0  0  0  0  0  0  0  0  0  0  0  0
    7.6550    0.9834   -1.4822 O   0  0  0  0  0  0  0  0  0  0  0  0
    5.1397    0.6927   -2.1021 C   0  0  0  0  0  0  0  0  0  0  0  0
    3.9067    0.0443   -1.4779 C   0  0  0  0  0  0  0  0  0  0  0  0
    3.1544    1.0560   -0.5498 C   0  0  0  0  0  0  0  0  0  0  0  0
    1.3422    0.7836   -0.3364 S   0  0  0  0  0  0  0  0  0  0  0  0
    0.8509    2.4555    0.1699 C   0  0  0  0  0  0  0  0  0  0  0  0
   -0.4834    2.5565    0.9185 C   0  0  0  0  0  0  0  0  0  0  0  0
   -0.4069    2.6118    2.4423 C   0  0  0  0  0  0  0  0  0  0  0  0
   -0.6870    3.8671    1.6737 C   0  0  0  0  0  0  0  0  0  0  0  0
   -1.7280    1.9115    0.2293 C   0  0  2  0  0  0  0  0  0  0  0  0
   -2.0613    2.5972   -1.1329 C   0  0  0  0  0  0  0  0  0  0  0  0
   -2.4465    3.8849   -0.9539 F   0  0  0  0  0  0  0  0  0  0  0  0
   -1.0026    2.6106   -1.9765 F   0  0  0  0  0  0  0  0  0  0  0  0
   -3.0619    1.9626   -1.7888 F   0  0  0  0  0  0  0  0  0  0  0  0
   -2.9120    1.9115    1.1573 N   0  0  0  0  0  0  0  0  0  0  0  0
   -8.5698   -2.1303   -1.4983 H   0  0  0  0  0  0  0  0  0  0  0  0
   -8.3558   -0.5581   -0.8168 H   0  0  0  0  0  0  0  0  0  0  0  0
   -6.9101    0.9184   -0.3096 H   0  0  0  0  0  0  0  0  0  0  0  0
   -4.2677   -3.3494   -0.2726 H   0  0  0  0  0  0  0  0  0  0  0  0
   -1.5229   -4.1983   -0.0303 H   0  0  0  0  0  0  0  0  0  0  0  0
    0.6229   -1.4637    2.5689 H   0  0  0  0  0  0  0  0  0  0  0  0
   -1.3535   -0.0623    2.7735 H   0  0  0  0  0  0  0  0  0  0  0  0
    0.3486   -3.2461   -1.4662 H   0  0  0  0  0  0  0  0  0  0  0  0
    2.4226   -2.3134   -2.3518 H   0  0  0  0  0  0  0  0  0  0  0  0
    5.6942   -2.2215    0.4734 H   0  0  0  0  0  0  0  0  0  0  0  0
    6.3187   -1.7354   -1.0843 H   0  0  0  0  0  0  0  0  0  0  0  0
    7.1929   -0.3192    0.7925 H   0  0  0  0  0  0  0  0  0  0  0  0
    5.5392    0.2075    1.1614 H   0  0  0  0  0  0  0  0  0  0  0  0
    4.8898    1.6091   -2.6462 H   0  0  0  0  0  0  0  0  0  0  0  0
    5.6219    0.0037   -2.8049 H   0  0  0  0  0  0  0  0  0  0  0  0
    3.2486   -0.1883   -2.3250 H   0  0  0  0  0  0  0  0  0  0  0  0
    3.5867    1.0709    0.4537 H   0  0  0  0  0  0  0  0  0  0  0  0
    3.2522    2.0584   -0.9808 H   0  0  0  0  0  0  0  0  0  0  0  0
    0.8278    3.0991   -0.7146 H   0  0  0  0  0  0  0  0  0  0  0  0
    1.6486    2.8477    0.8124 H   0  0  0  0  0  0  0  0  0  0  0  0
   -1.2157    2.2134    3.0445 H   0  0  0  0  0  0  0  0  0  0  0  0
    0.5618    2.5070    2.9199 H   0  0  0  0  0  0  0  0  0  0  0  0
   -1.6804    4.2953    1.7497 H   0  0  0  0  0  0  0  0  0  0  0  0
    0.0928    4.6217    1.6409 H   0  0  0  0  0  0  0  0  0  0  0  0
   -1.4579    0.8786   -0.0018 H   0  0  0  0  0  0  0  0  0  0  0  0
   -3.3690    2.8156    1.2427 H   0  0  0  0  0  0  0  0  0  0  0  0
  1  2  1  0
  2  3  2  0
  2  4  1  0
  4  5  2  0
  5  6  1  0
  6  7  2  0
  7  8  1  0
  8  9  2  0
  9 10  1  0
 10 11  1  0
 11 12  2  0
 12 13  1  0
 13 14  2  0
 14 15  1  0
 15 16  2  0
 13 17  1  0
 17 18  2  0
 18 19  1  0
 19 20  2  0
 20 21  1  0
 21 22  2  0
 20 23  1  0
 23 24  1  0
 24 25  1  0
 25 26  1  0
 26 27  2  0
 26 28  2  0
 26 29  1  0
 29 30  1  0
 30 31  1  0
 31 32  1  0
 32 33  1  0
 33 34  1  0
 34 35  1  0
 35 36  1  0
 34 37  1  0
 37 38  1  0
 38 39  1  0
 38 40  1  0
 38 41  1  0
 37 42  1  0
  9  4  1  0
 16 11  1  0
 22 17  1  0
 30 23  1  0
 36 34  1  0
 42  7  1  0
 16  8  1  0
  1 43  1  0
  1 44  1  0
  5 45  1  0
 10 46  1  0
 12 47  1  0
 14 48  1  0
 15 49  1  0
 18 50  1  0
 19 51  1  0
 24 52  1  0
 24 53  1  0
 25 54  1  0
 25 55  1  0
 29 56  1  0
 29 57  1  0
 30 58  1  0
 31 59  1  0
 31 60  1  0
 33 61  1  0
 33 62  1  0
 35 63  1  0
 35 64  1  0
 36 65  1  0
 36 66  1  0
 37 67  1  6
 42 68  1  0
M  END
>  <candidate_id>  (59) 
CAND_35c4ee0b09

>  <source_generator>  (59) 
v5_3_model_guided_macrocycle

>  <parent_mol_id>  (59) 
JAK2_b8536fbab5

>  <canonical_smiles>  (59) 
NC(=O)c1cnc2c3c1[nH]c1cc(ccc13)-c1ccc(nn1)N1CCS(=O)(=O)CC1CSCC1(CC1)[C@H](C(F)(F)F)N2

>  <inchikey>  (59) 
IZZXRBQLSMOBFN-FFMAFDDDSA-N

>  <valid_rdkit>  (59) 
True

>  <unique_flag>  (59) 
True

>  <novel_flag>  (59) 
True

>  <mw>  (59) 
617.679

>  <logp>  (59) 
3.7452

>  <tpsa>  (59) 
146.96

>  <hbd>  (59) 
3

>  <hba>  (59) 
9

>  <rotatable_bonds>  (59) 
1

>  <qed>  (59) 
0.2907

>  <sa_score>  (59) 
5.512

>  <murcko_scaffold>  (59) 
O=S1(=O)CCN2c3ccc(nn3)-c3ccc4c(c3)[nH]c3ccnc(c34)NCC3(CC3)CSCC2C1

>  <max_ring_size>  (59) 
18

>  <has_macrocycle_12_20>  (59) 
True

>  <has_constrained_ring_8_11>  (59) 
False

>  <passes_basic_filters>  (59) 
True

>  <generation_notes>  (59) 
v5_3_model_guided_anchor_pair=9-27;anchor_scores=0.691,0.079;linker_length=3;target_ring=17;linker_prob=0.683;chemotype=thioether

$$$$
CAND_d7d5e569e3
     RDKit          3D

 68 74  0  0  0  0  0  0  0  0999 V2000
    8.0974   -0.8607   -0.6669 N   0  0  0  0  0  0  0  0  0  0  0  0
    6.9330   -0.1546   -0.7650 C   0  0  0  0  0  0  0  0  0  0  0  0
    6.8721    0.8529   -1.4634 O   0  0  0  0  0  0  0  0  0  0  0  0
    5.7526   -0.6139   -0.0053 C   0  0  0  0  0  0  0  0  0  0  0  0
    5.6450   -1.8358    0.6509 C   0  0  0  0  0  0  0  0  0  0  0  0
    4.5346   -2.2994    1.2882 N   0  0  0  0  0  0  0  0  0  0  0  0
    3.4222   -1.5304    1.3262 C   0  0  0  0  0  0  0  0  0  0  0  0
    3.4867   -0.2182    0.8038 C   0  0  0  0  0  0  0  0  0  0  0  0
    4.6071    0.1822    0.0822 C   0  0  0  0  0  0  0  0  0  0  0  0
    4.3016    1.4008   -0.4958 N   0  0  0  0  0  0  0  0  0  0  0  0
    3.0176    1.7825   -0.1771 C   0  0  0  0  0  0  0  0  0  0  0  0
    2.1950    2.8068   -0.6796 C   0  0  0  0  0  0  0  0  0  0  0  0
    0.8853    2.8935   -0.1664 C   0  0  0  0  0  0  0  0  0  0  0  0
    0.5322    2.1170    0.9562 C   0  0  0  0  0  0  0  0  0  0  0  0
    1.3546    1.1067    1.4312 C   0  0  0  0  0  0  0  0  0  0  0  0
    2.5724    0.8753    0.7812 C   0  0  0  0  0  0  0  0  0  0  0  0
   -0.2404    3.5053   -0.9092 C   0  0  0  0  0  0  0  0  0  0  0  0
   -0.5522    2.9476   -2.1457 C   0  0  0  0  0  0  0  0  0  0  0  0
   -1.8689    2.5592   -2.3592 C   0  0  0  0  0  0  0  0  0  0  0  0
   -2.7967    2.7965   -1.3569 C   0  0  0  0  0  0  0  0  0  0  0  0
   -2.5129    3.6519   -0.3528 N   0  0  0  0  0  0  0  0  0  0  0  0
   -1.2214    4.0212   -0.1304 N   0  0  0  0  0  0  0  0  0  0  0  0
   -3.8620    1.8820   -1.2108 N   0  0  0  0  0  0  0  0  0  0  0  0
   -5.1730    2.5138   -1.2918 C   0  0  0  0  0  0  0  0  0  0  0  0
   -6.1989    1.4584   -1.6322 C   0  0  0  0  0  0  0  0  0  0  0  0
   -6.2036    0.1675   -0.4101 S   0  0  0  0  0  0  0  0  0  0  0  0
   -7.4195    0.3156    0.3700 O   0  0  0  0  0  0  0  0  0  0  0  0
   -5.9193   -1.0890   -1.0785 O   0  0  0  0  0  0  0  0  0  0  0  0
   -4.8499    0.5374    0.6706 C   0  0  0  0  0  0  0  0  0  0  0  0
   -3.5899    0.9329   -0.0850 C   0  0  0  0  0  0  0  0  0  0  0  0
   -2.7747   -0.3052   -0.5444 C   0  0  0  0  0  0  0  0  0  0  0  0
   -2.0330   -0.8344    0.5716 O   0  0  0  0  0  0  0  0  0  0  0  0
   -1.3091   -2.0208    0.2207 C   0  0  0  0  0  0  0  0  0  0  0  0
   -0.2296   -2.3319    1.2701 C   0  0  0  0  0  0  0  0  0  0  0  0
   -0.4996   -1.9468    2.7249 C   0  0  0  0  0  0  0  0  0  0  0  0
   -0.5715   -3.3839    2.3213 C   0  0  0  0  0  0  0  0  0  0  0  0
    1.2107   -2.3119    0.6903 C   0  0  2  0  0  0  0  0  0  0  0  0
    1.4847   -3.5703   -0.1933 C   0  0  0  0  0  0  0  0  0  0  0  0
    2.5970   -3.4192   -0.9500 F   0  0  0  0  0  0  0  0  0  0  0  0
    1.6475   -4.6840    0.5598 F   0  0  0  0  0  0  0  0  0  0  0  0
    0.4645   -3.8115   -1.0527 F   0  0  0  0  0  0  0  0  0  0  0  0
    2.2429   -2.1388    1.7578 N   0  0  0  0  0  0  0  0  0  0  0  0
    8.8873   -0.5150   -1.1986 H   0  0  0  0  0  0  0  0  0  0  0  0
    8.2509   -1.6677   -0.0818 H   0  0  0  0  0  0  0  0  0  0  0  0
    6.4638   -2.5481    0.6606 H   0  0  0  0  0  0  0  0  0  0  0  0
    4.9257    1.8830   -1.1334 H   0  0  0  0  0  0  0  0  0  0  0  0
    2.5168    3.4188   -1.5166 H   0  0  0  0  0  0  0  0  0  0  0  0
   -0.4647    2.1960    1.3911 H   0  0  0  0  0  0  0  0  0  0  0  0
    1.0083    0.4507    2.2233 H   0  0  0  0  0  0  0  0  0  0  0  0
    0.2221    2.5493   -2.7946 H   0  0  0  0  0  0  0  0  0  0  0  0
   -2.1122    1.9037   -3.1888 H   0  0  0  0  0  0  0  0  0  0  0  0
   -5.4215    3.0296   -0.3559 H   0  0  0  0  0  0  0  0  0  0  0  0
   -5.1876    3.2682   -2.0892 H   0  0  0  0  0  0  0  0  0  0  0  0
   -7.2035    1.8884   -1.6779 H   0  0  0  0  0  0  0  0  0  0  0  0
   -5.9738    0.9922   -2.5973 H   0  0  0  0  0  0  0  0  0  0  0  0
   -4.6900   -0.3297    1.3193 H   0  0  0  0  0  0  0  0  0  0  0  0
   -5.1835    1.3653    1.3074 H   0  0  0  0  0  0  0  0  0  0  0  0
   -2.9739    1.4327    0.6773 H   0  0  0  0  0  0  0  0  0  0  0  0
   -2.0518   -0.0241   -1.3166 H   0  0  0  0  0  0  0  0  0  0  0  0
   -3.4191   -1.0855   -0.9583 H   0  0  0  0  0  0  0  0  0  0  0  0
   -2.0180   -2.8530    0.1436 H   0  0  0  0  0  0  0  0  0  0  0  0
   -0.8510   -1.8776   -0.7640 H   0  0  0  0  0  0  0  0  0  0  0  0
    0.3223   -1.6410    3.3622 H   0  0  0  0  0  0  0  0  0  0  0  0
   -1.4295   -1.4434    2.9688 H   0  0  0  0  0  0  0  0  0  0  0  0
   -1.5522   -3.8485    2.3010 H   0  0  0  0  0  0  0  0  0  0  0  0
    0.2066   -4.0456    2.6865 H   0  0  0  0  0  0  0  0  0  0  0  0
    1.2392   -1.4503    0.0137 H   0  0  0  0  0  0  0  0  0  0  0  0
    2.4586   -2.9945    2.2638 H   0  0  0  0  0  0  0  0  0  0  0  0
  1  2  1  0
  2  3  2  0
  2  4  1  0
  4  5  2  0
  5  6  1  0
  6  7  2  0
  7  8  1  0
  8  9  2  0
  9 10  1  0
 10 11  1  0
 11 12  2  0
 12 13  1  0
 13 14  2  0
 14 15  1  0
 15 16  2  0
 13 17  1  0
 17 18  2  0
 18 19  1  0
 19 20  2  0
 20 21  1  0
 21 22  2  0
 20 23  1  0
 23 24  1  0
 24 25  1  0
 25 26  1  0
 26 27  2  0
 26 28  2  0
 26 29  1  0
 29 30  1  0
 30 31  1  0
 31 32  1  0
 32 33  1  0
 33 34  1  0
 34 35  1  0
 35 36  1  0
 34 37  1  0
 37 38  1  0
 38 39  1  0
 38 40  1  0
 38 41  1  0
 37 42  1  0
  9  4  1  0
 16 11  1  0
 22 17  1  0
 30 23  1  0
 36 34  1  0
 42  7  1  0
 16  8  1  0
  1 43  1  0
  1 44  1  0
  5 45  1  0
 10 46  1  0
 12 47  1  0
 14 48  1  0
 15 49  1  0
 18 50  1  0
 19 51  1  0
 24 52  1  0
 24 53  1  0
 25 54  1  0
 25 55  1  0
 29 56  1  0
 29 57  1  0
 30 58  1  0
 31 59  1  0
 31 60  1  0
 33 61  1  0
 33 62  1  0
 35 63  1  0
 35 64  1  0
 36 65  1  0
 36 66  1  0
 37 67  1  6
 42 68  1  0
M  END
>  <candidate_id>  (60) 
CAND_d7d5e569e3

>  <source_generator>  (60) 
v5_3_model_guided_macrocycle

>  <parent_mol_id>  (60) 
JAK2_b8536fbab5

>  <canonical_smiles>  (60) 
NC(=O)c1cnc2c3c1[nH]c1cc(ccc13)-c1ccc(nn1)N1CCS(=O)(=O)CC1COCC1(CC1)[C@H](C(F)(F)F)N2

>  <inchikey>  (60) 
CNIZANOYKOCSCB-FFMAFDDDSA-N

>  <valid_rdkit>  (60) 
True

>  <unique_flag>  (60) 
True

>  <novel_flag>  (60) 
True

>  <mw>  (60) 
601.611

>  <logp>  (60) 
3.0286

>  <tpsa>  (60) 
156.19

>  <hbd>  (60) 
3

>  <hba>  (60) 
9

>  <rotatable_bonds>  (60) 
1

>  <qed>  (60) 
0.2985

>  <sa_score>  (60) 
5.423

>  <murcko_scaffold>  (60) 
O=S1(=O)CCN2c3ccc(nn3)-c3ccc4c(c3)[nH]c3ccnc(c34)NCC3(CC3)COCC2C1

>  <max_ring_size>  (60) 
18

>  <has_macrocycle_12_20>  (60) 
True

>  <has_constrained_ring_8_11>  (60) 
False

>  <passes_basic_filters>  (60) 
True

>  <generation_notes>  (60) 
v5_3_model_guided_anchor_pair=9-27;anchor_scores=0.691,0.079;linker_length=3;target_ring=17;linker_prob=0.683;chemotype=oxa

$$$$
CAND_637465f4e1
     RDKit          3D

 70 76  0  0  0  0  0  0  0  0999 V2000
    7.2277   -1.5340    1.6366 N   0  0  0  0  0  0  0  0  0  0  0  0
    6.8544   -0.2540    1.9388 C   0  0  0  0  0  0  0  0  0  0  0  0
    7.3661    0.3587    2.8647 O   0  0  0  0  0  0  0  0  0  0  0  0
    5.8459    0.3673    1.0719 C   0  0  0  0  0  0  0  0  0  0  0  0
    5.8725    1.7387    0.8294 C   0  0  0  0  0  0  0  0  0  0  0  0
    4.9529    2.4274    0.0982 N   0  0  0  0  0  0  0  0  0  0  0  0
    3.9298    1.7528   -0.4699 C   0  0  0  0  0  0  0  0  0  0  0  0
    3.9217    0.3410   -0.3996 C   0  0  0  0  0  0  0  0  0  0  0  0
    4.7925   -0.3185    0.4649 C   0  0  0  0  0  0  0  0  0  0  0  0
    4.2919   -1.5994    0.6171 N   0  0  0  0  0  0  0  0  0  0  0  0
    3.1579   -1.7676   -0.1499 C   0  0  0  0  0  0  0  0  0  0  0  0
    2.1478   -2.7427   -0.1371 C   0  0  0  0  0  0  0  0  0  0  0  0
    1.0428   -2.5415   -0.9965 C   0  0  0  0  0  0  0  0  0  0  0  0
    1.1286   -1.5657   -2.0086 C   0  0  0  0  0  0  0  0  0  0  0  0
    2.1322   -0.6094   -1.9982 C   0  0  0  0  0  0  0  0  0  0  0  0
    3.0753   -0.6480   -0.9673 C   0  0  0  0  0  0  0  0  0  0  0  0
   -0.3032   -3.0508   -0.6559 C   0  0  0  0  0  0  0  0  0  0  0  0
   -1.3147   -3.1316   -1.6024 C   0  0  0  0  0  0  0  0  0  0  0  0
   -2.5964   -2.7611   -1.2161 C   0  0  0  0  0  0  0  0  0  0  0  0
   -2.8322   -2.4084    0.1032 C   0  0  0  0  0  0  0  0  0  0  0  0
   -1.8858   -2.6244    1.0369 N   0  0  0  0  0  0  0  0  0  0  0  0
   -0.6094   -2.9329    0.6580 N   0  0  0  0  0  0  0  0  0  0  0  0
   -3.9766   -1.7136    0.4435 N   0  0  0  0  0  0  0  0  0  0  0  0
   -4.7244   -2.1652    1.6028 C   0  0  0  0  0  0  0  0  0  0  0  0
   -6.1573   -2.4105    1.1745 C   0  0  0  0  0  0  0  0  0  0  0  0
   -6.7809   -1.0323    0.2288 S   0  0  0  0  0  0  0  0  0  0  0  0
   -6.8777   -1.4237   -1.1660 O   0  0  0  0  0  0  0  0  0  0  0  0
   -7.9473   -0.5169    0.9236 O   0  0  0  0  0  0  0  0  0  0  0  0
   -5.5181    0.2040    0.3559 C   0  0  0  0  0  0  0  0  0  0  0  0
   -4.1527   -0.3396   -0.0713 C   0  0  0  0  0  0  0  0  0  0  0  0
   -3.0530    0.6254    0.4676 C   0  0  0  0  0  0  0  0  0  0  0  0
   -1.9138    0.9598   -0.5232 C   0  0  0  0  0  0  0  0  0  0  0  0
   -0.8963    1.9064    0.1399 C   0  0  0  0  0  0  0  0  0  0  0  0
    0.2781    2.4260   -0.7198 C   0  0  0  0  0  0  0  0  0  0  0  0
   -0.0262    3.6643   -1.5560 C   0  0  0  0  0  0  0  0  0  0  0  0
    0.2195    2.3626   -2.2451 C   0  0  0  0  0  0  0  0  0  0  0  0
    1.6509    2.3741    0.0310 C   0  0  2  0  0  0  0  0  0  0  0  0
    1.7190    3.4276    1.1855 C   0  0  0  0  0  0  0  0  0  0  0  0
    1.8861    4.6819    0.6986 F   0  0  0  0  0  0  0  0  0  0  0  0
    0.5924    3.4359    1.9376 F   0  0  0  0  0  0  0  0  0  0  0  0
    2.7436    3.1785    2.0334 F   0  0  0  0  0  0  0  0  0  0  0  0
    2.8215    2.4915   -0.9054 N   0  0  0  0  0  0  0  0  0  0  0  0
    6.9648   -2.0052    0.7826 H   0  0  0  0  0  0  0  0  0  0  0  0
    7.9461   -1.9527    2.2152 H   0  0  0  0  0  0  0  0  0  0  0  0
    6.6541    2.3586    1.2656 H   0  0  0  0  0  0  0  0  0  0  0  0
    4.6146   -2.2592    1.3120 H   0  0  0  0  0  0  0  0  0  0  0  0
    2.1218   -3.5067    0.6355 H   0  0  0  0  0  0  0  0  0  0  0  0
    0.3159   -1.4042   -2.7139 H   0  0  0  0  0  0  0  0  0  0  0  0
    2.1000    0.2290   -2.6858 H   0  0  0  0  0  0  0  0  0  0  0  0
   -1.0948   -3.2734   -2.6553 H   0  0  0  0  0  0  0  0  0  0  0  0
   -3.3792   -2.6539   -1.9604 H   0  0  0  0  0  0  0  0  0  0  0  0
   -4.3244   -3.0967    2.0233 H   0  0  0  0  0  0  0  0  0  0  0  0
   -4.6724   -1.4167    2.4025 H   0  0  0  0  0  0  0  0  0  0  0  0
   -6.2295   -3.2955    0.5335 H   0  0  0  0  0  0  0  0  0  0  0  0
   -6.8025   -2.5546    2.0456 H   0  0  0  0  0  0  0  0  0  0  0  0
   -5.5184    0.5401    1.3996 H   0  0  0  0  0  0  0  0  0  0  0  0
   -5.8159    1.0532   -0.2679 H   0  0  0  0  0  0  0  0  0  0  0  0
   -4.1286   -0.3602   -1.1683 H   0  0  0  0  0  0  0  0  0  0  0  0
   -2.6238    0.2287    1.3965 H   0  0  0  0  0  0  0  0  0  0  0  0
   -3.5170    1.5842    0.7364 H   0  0  0  0  0  0  0  0  0  0  0  0
   -1.4064    0.0494   -0.8531 H   0  0  0  0  0  0  0  0  0  0  0  0
   -2.3520    1.4341   -1.4078 H   0  0  0  0  0  0  0  0  0  0  0  0
   -0.4909    1.3794    1.0130 H   0  0  0  0  0  0  0  0  0  0  0  0
   -1.4291    2.7793    0.5393 H   0  0  0  0  0  0  0  0  0  0  0  0
   -1.0379    4.0565   -1.5669 H   0  0  0  0  0  0  0  0  0  0  0  0
    0.7307    4.4356   -1.6560 H   0  0  0  0  0  0  0  0  0  0  0  0
   -0.6163    1.8845   -2.7396 H   0  0  0  0  0  0  0  0  0  0  0  0
    1.1357    2.2888   -2.8210 H   0  0  0  0  0  0  0  0  0  0  0  0
    1.6702    1.3888    0.5130 H   0  0  0  0  0  0  0  0  0  0  0  0
    3.1003    3.4566   -1.0713 H   0  0  0  0  0  0  0  0  0  0  0  0
  1  2  1  0
  2  3  2  0
  2  4  1  0
  4  5  2  0
  5  6  1  0
  6  7  2  0
  7  8  1  0
  8  9  2  0
  9 10  1  0
 10 11  1  0
 11 12  2  0
 12 13  1  0
 13 14  2  0
 14 15  1  0
 15 16  2  0
 13 17  1  0
 17 18  2  0
 18 19  1  0
 19 20  2  0
 20 21  1  0
 21 22  2  0
 20 23  1  0
 23 24  1  0
 24 25  1  0
 25 26  1  0
 26 27  2  0
 26 28  2  0
 26 29  1  0
 29 30  1  0
 30 31  1  0
 31 32  1  0
 32 33  1  0
 33 34  1  0
 34 35  1  0
 35 36  1  0
 34 37  1  0
 37 38  1  0
 38 39  1  0
 38 40  1  0
 38 41  1  0
 37 42  1  0
  9  4  1  0
 16 11  1  0
 22 17  1  0
 30 23  1  0
 36 34  1  0
 42  7  1  0
 16  8  1  0
  1 43  1  0
  1 44  1  0
  5 45  1  0
 10 46  1  0
 12 47  1  0
 14 48  1  0
 15 49  1  0
 18 50  1  0
 19 51  1  0
 24 52  1  0
 24 53  1  0
 25 54  1  0
 25 55  1  0
 29 56  1  0
 29 57  1  0
 30 58  1  0
 31 59  1  0
 31 60  1  0
 32 61  1  0
 32 62  1  0
 33 63  1  0
 33 64  1  0
 35 65  1  0
 35 66  1  0
 36 67  1  0
 36 68  1  0
 37 69  1  1
 42 70  1  0
M  END
>  <candidate_id>  (61) 
CAND_637465f4e1

>  <source_generator>  (61) 
v5_3_model_guided_macrocycle

>  <parent_mol_id>  (61) 
JAK2_b8536fbab5

>  <canonical_smiles>  (61) 
NC(=O)c1cnc2c3c1[nH]c1cc(ccc13)-c1ccc(nn1)N1CCS(=O)(=O)CC1CCCC1(CC1)[C@H](C(F)(F)F)N2

>  <inchikey>  (61) 
XQNAVBPORQFBPI-IIVOFZELSA-N

>  <valid_rdkit>  (61) 
True

>  <unique_flag>  (61) 
True

>  <novel_flag>  (61) 
True

>  <mw>  (61) 
599.639

>  <logp>  (61) 
4.1823

>  <tpsa>  (61) 
146.96

>  <hbd>  (61) 
3

>  <hba>  (61) 
8

>  <rotatable_bonds>  (61) 
1

>  <qed>  (61) 
0.2953

>  <sa_score>  (61) 
5.412

>  <murcko_scaffold>  (61) 
O=S1(=O)CCN2c3ccc(nn3)-c3ccc4c(c3)[nH]c3ccnc(c34)NCC3(CCCC2C1)CC3

>  <max_ring_size>  (61) 
18

>  <has_macrocycle_12_20>  (61) 
True

>  <has_constrained_ring_8_11>  (61) 
False

>  <passes_basic_filters>  (61) 
True

>  <generation_notes>  (61) 
v5_3_model_guided_anchor_pair=9-27;anchor_scores=0.691,0.079;linker_length=3;target_ring=17;linker_prob=0.683;chemotype=alkyl

$$$$
CAND_da006e9e54
     RDKit          3D

 69 75  0  0  0  0  0  0  0  0999 V2000
    6.5506   -2.4129   -0.7311 N   0  0  0  0  0  0  0  0  0  0  0  0
    6.3668   -1.0623   -0.8361 C   0  0  0  0  0  0  0  0  0  0  0  0
    7.0784   -0.3740   -1.5532 O   0  0  0  0  0  0  0  0  0  0  0  0
    5.3072   -0.4693   -0.0115 C   0  0  0  0  0  0  0  0  0  0  0  0
    5.4637    0.8031    0.5214 C   0  0  0  0  0  0  0  0  0  0  0  0
    4.5353    1.4529    1.2703 N   0  0  0  0  0  0  0  0  0  0  0  0
    3.3517    0.8554    1.5308 C   0  0  0  0  0  0  0  0  0  0  0  0
    3.1519   -0.4812    1.1161 C   0  0  0  0  0  0  0  0  0  0  0  0
    4.0909   -1.0895    0.2801 C   0  0  0  0  0  0  0  0  0  0  0  0
    3.5115   -2.2498   -0.1896 N   0  0  0  0  0  0  0  0  0  0  0  0
    2.2617   -2.4258    0.3575 C   0  0  0  0  0  0  0  0  0  0  0  0
    1.2294   -3.3156    0.0252 C   0  0  0  0  0  0  0  0  0  0  0  0
   -0.0075   -3.1536    0.6855 C   0  0  0  0  0  0  0  0  0  0  0  0
   -0.0715   -2.3248    1.8227 C   0  0  0  0  0  0  0  0  0  0  0  0
    0.9690   -1.4531    2.1393 C   0  0  0  0  0  0  0  0  0  0  0  0
    2.1016   -1.4274    1.3124 C   0  0  0  0  0  0  0  0  0  0  0  0
   -1.2749   -3.4804   -0.0082 C   0  0  0  0  0  0  0  0  0  0  0  0
   -2.4753   -3.6436    0.6666 C   0  0  0  0  0  0  0  0  0  0  0  0
   -3.5987   -2.9820    0.1668 C   0  0  0  0  0  0  0  0  0  0  0  0
   -3.4570   -2.2006   -0.9733 C   0  0  0  0  0  0  0  0  0  0  0  0
   -2.3662   -2.3669   -1.7485 N   0  0  0  0  0  0  0  0  0  0  0  0
   -1.2781   -3.0278   -1.2805 N   0  0  0  0  0  0  0  0  0  0  0  0
   -4.2107   -1.0462   -1.1492 N   0  0  0  0  0  0  0  0  0  0  0  0
   -5.6478   -1.0012   -0.9434 C   0  0  0  0  0  0  0  0  0  0  0  0
   -5.9930    0.1221    0.0015 C   0  0  0  0  0  0  0  0  0  0  0  0
   -5.6211    1.6775   -0.7708 S   0  0  0  0  0  0  0  0  0  0  0  0
   -6.7803    2.0456   -1.5644 O   0  0  0  0  0  0  0  0  0  0  0  0
   -5.1366    2.5702    0.2651 O   0  0  0  0  0  0  0  0  0  0  0  0
   -4.2915    1.3346   -1.8999 C   0  0  0  0  0  0  0  0  0  0  0  0
   -3.4167    0.1801   -1.4385 C   0  0  0  0  0  0  0  0  0  0  0  0
   -2.4841    0.5698   -0.2318 C   0  0  0  0  0  0  0  0  0  0  0  0
   -1.2788    1.3043   -0.6603 N   0  0  0  0  0  0  0  0  0  0  0  0
   -0.4139    1.6307    0.4891 C   0  0  0  0  0  0  0  0  0  0  0  0
    0.9430    2.2463    0.1160 C   0  0  0  0  0  0  0  0  0  0  0  0
    1.7120    1.7349   -1.1004 C   0  0  0  0  0  0  0  0  0  0  0  0
    1.0018    3.0511   -1.1856 C   0  0  0  0  0  0  0  0  0  0  0  0
    1.7476    2.7260    1.3670 C   0  0  2  0  0  0  0  0  0  0  0  0
    2.6862    3.9512    1.1550 C   0  0  0  0  0  0  0  0  0  0  0  0
    3.5890    3.8066    0.1655 F   0  0  0  0  0  0  0  0  0  0  0  0
    1.9566    5.0635    0.8753 F   0  0  0  0  0  0  0  0  0  0  0  0
    3.3629    4.2279    2.3017 F   0  0  0  0  0  0  0  0  0  0  0  0
    2.3648    1.6074    2.1604 N   0  0  0  0  0  0  0  0  0  0  0  0
    7.3022   -2.8187   -1.2759 H   0  0  0  0  0  0  0  0  0  0  0  0
    6.1114   -2.9820   -0.0213 H   0  0  0  0  0  0  0  0  0  0  0  0
    6.3750    1.3704    0.3405 H   0  0  0  0  0  0  0  0  0  0  0  0
    3.8985   -2.8239   -0.9264 H   0  0  0  0  0  0  0  0  0  0  0  0
    1.3131   -3.9578   -0.8482 H   0  0  0  0  0  0  0  0  0  0  0  0
   -1.0019   -2.1959    2.3723 H   0  0  0  0  0  0  0  0  0  0  0  0
    0.8410   -0.7094    2.9214 H   0  0  0  0  0  0  0  0  0  0  0  0
   -2.4999   -4.0530    1.6717 H   0  0  0  0  0  0  0  0  0  0  0  0
   -4.4768   -2.9079    0.7977 H   0  0  0  0  0  0  0  0  0  0  0  0
   -6.1440   -0.8663   -1.9123 H   0  0  0  0  0  0  0  0  0  0  0  0
   -6.0312   -1.9439   -0.5377 H   0  0  0  0  0  0  0  0  0  0  0  0
   -7.0584    0.1240    0.2492 H   0  0  0  0  0  0  0  0  0  0  0  0
   -5.4154    0.0577    0.9292 H   0  0  0  0  0  0  0  0  0  0  0  0
   -3.7211    2.2583   -2.0368 H   0  0  0  0  0  0  0  0  0  0  0  0
   -4.7591    1.0825   -2.8589 H   0  0  0  0  0  0  0  0  0  0  0  0
   -2.7661   -0.0393   -2.2971 H   0  0  0  0  0  0  0  0  0  0  0  0
   -3.0384    1.1642    0.5000 H   0  0  0  0  0  0  0  0  0  0  0  0
   -2.1555   -0.3303    0.2969 H   0  0  0  0  0  0  0  0  0  0  0  0
   -0.7496    0.6808   -1.2741 H   0  0  0  0  0  0  0  0  0  0  0  0
   -0.9511    2.3432    1.1263 H   0  0  0  0  0  0  0  0  0  0  0  0
   -0.2286    0.7319    1.0794 H   0  0  0  0  0  0  0  0  0  0  0  0
    2.7966    1.7710   -1.1116 H   0  0  0  0  0  0  0  0  0  0  0  0
    1.3230    0.8956   -1.6636 H   0  0  0  0  0  0  0  0  0  0  0  0
    1.6126    3.9421   -1.2724 H   0  0  0  0  0  0  0  0  0  0  0  0
    0.1197    3.1123   -1.8159 H   0  0  0  0  0  0  0  0  0  0  0  0
    0.9837    3.1210    2.0510 H   0  0  0  0  0  0  0  0  0  0  0  0
    2.7903    2.0000    3.0017 H   0  0  0  0  0  0  0  0  0  0  0  0
  1  2  1  0
  2  3  2  0
  2  4  1  0
  4  5  2  0
  5  6  1  0
  6  7  2  0
  7  8  1  0
  8  9  2  0
  9 10  1  0
 10 11  1  0
 11 12  2  0
 12 13  1  0
 13 14  2  0
 14 15  1  0
 15 16  2  0
 13 17  1  0
 17 18  2  0
 18 19  1  0
 19 20  2  0
 20 21  1  0
 21 22  2  0
 20 23  1  0
 23 24  1  0
 24 25  1  0
 25 26  1  0
 26 27  2  0
 26 28  2  0
 26 29  1  0
 29 30  1  0
 30 31  1  0
 31 32  1  0
 32 33  1  0
 33 34  1  0
 34 35  1  0
 35 36  1  0
 34 37  1  0
 37 38  1  0
 38 39  1  0
 38 40  1  0
 38 41  1  0
 37 42  1  0
  9  4  1  0
 16 11  1  0
 22 17  1  0
 30 23  1  0
 36 34  1  0
 42  7  1  0
 16  8  1  0
  1 43  1  0
  1 44  1  0
  5 45  1  0
 10 46  1  0
 12 47  1  0
 14 48  1  0
 15 49  1  0
 18 50  1  0
 19 51  1  0
 24 52  1  0
 24 53  1  0
 25 54  1  0
 25 55  1  0
 29 56  1  0
 29 57  1  0
 30 58  1  0
 31 59  1  0
 31 60  1  0
 32 61  1  0
 33 62  1  0
 33 63  1  0
 35 64  1  0
 35 65  1  0
 36 66  1  0
 36 67  1  0
 37 68  1  1
 42 69  1  0
M  END
>  <candidate_id>  (62) 
CAND_da006e9e54

>  <source_generator>  (62) 
v5_3_model_guided_macrocycle

>  <parent_mol_id>  (62) 
JAK2_b8536fbab5

>  <canonical_smiles>  (62) 
NC(=O)c1cnc2c3c1[nH]c1cc(ccc13)-c1ccc(nn1)N1CCS(=O)(=O)CC1CNCC1(CC1)[C@H](C(F)(F)F)N2

>  <inchikey>  (62) 
UOQSWCBMAYJTFK-FFMAFDDDSA-N

>  <valid_rdkit>  (62) 
True

>  <unique_flag>  (62) 
True

>  <novel_flag>  (62) 
True

>  <mw>  (62) 
600.627

>  <logp>  (62) 
2.6016

>  <tpsa>  (62) 
158.99

>  <hbd>  (62) 
4

>  <hba>  (62) 
9

>  <rotatable_bonds>  (62) 
1

>  <qed>  (62) 
0.2577

>  <sa_score>  (62) 
5.417

>  <murcko_scaffold>  (62) 
O=S1(=O)CCN2c3ccc(nn3)-c3ccc4c(c3)[nH]c3ccnc(c34)NCC3(CC3)CNCC2C1

>  <max_ring_size>  (62) 
18

>  <has_macrocycle_12_20>  (62) 
True

>  <has_constrained_ring_8_11>  (62) 
False

>  <passes_basic_filters>  (62) 
True

>  <generation_notes>  (62) 
v5_3_model_guided_anchor_pair=9-27;anchor_scores=0.691,0.079;linker_length=3;target_ring=17;linker_prob=0.683;chemotype=aza

$$$$
CAND_1ec7ae5d21
     RDKit          3D

 70 76  0  0  0  0  0  0  0  0999 V2000
    6.8722   -0.2938    2.4988 N   0  0  0  0  0  0  0  0  0  0  0  0
    5.7997    0.4438    2.0867 C   0  0  0  0  0  0  0  0  0  0  0  0
    5.4941    1.4787    2.6719 O   0  0  0  0  0  0  0  0  0  0  0  0
    5.0209   -0.0172    0.9195 C   0  0  0  0  0  0  0  0  0  0  0  0
    5.1569   -1.2543    0.3006 C   0  0  0  0  0  0  0  0  0  0  0  0
    4.3830   -1.7173   -0.7183 N   0  0  0  0  0  0  0  0  0  0  0  0
    3.3934   -0.9373   -1.2098 C   0  0  0  0  0  0  0  0  0  0  0  0
    3.2837    0.3923   -0.7483 C   0  0  0  0  0  0  0  0  0  0  0  0
    4.0288    0.7922    0.3589 C   0  0  0  0  0  0  0  0  0  0  0  0
    3.5376    2.0234    0.7497 N   0  0  0  0  0  0  0  0  0  0  0  0
    2.4710    2.3862   -0.0399 C   0  0  0  0  0  0  0  0  0  0  0  0
    1.4724    3.3589    0.1316 C   0  0  0  0  0  0  0  0  0  0  0  0
    0.4190    3.3743   -0.8097 C   0  0  0  0  0  0  0  0  0  0  0  0
    0.6155    2.7094   -2.0380 C   0  0  0  0  0  0  0  0  0  0  0  0
    1.6207    1.7594   -2.1980 C   0  0  0  0  0  0  0  0  0  0  0  0
    2.4634    1.4997   -1.1116 C   0  0  0  0  0  0  0  0  0  0  0  0
   -0.9805    3.7297   -0.4370 C   0  0  0  0  0  0  0  0  0  0  0  0
   -1.4095    3.7577    0.8810 C   0  0  0  0  0  0  0  0  0  0  0  0
   -2.6486    3.1869    1.1900 C   0  0  0  0  0  0  0  0  0  0  0  0
   -3.3924    2.5947    0.1792 C   0  0  0  0  0  0  0  0  0  0  0  0
   -3.0822    2.9046   -1.0930 N   0  0  0  0  0  0  0  0  0  0  0  0
   -1.8908    3.4938   -1.4039 N   0  0  0  0  0  0  0  0  0  0  0  0
   -4.2954    1.5550    0.4117 N   0  0  0  0  0  0  0  0  0  0  0  0
   -4.7834    1.2686    1.7644 C   0  0  0  0  0  0  0  0  0  0  0  0
   -5.6123    0.0031    1.8053 C   0  0  0  0  0  0  0  0  0  0  0  0
   -4.5882   -1.3858    1.3508 S   0  0  0  0  0  0  0  0  0  0  0  0
   -3.8045   -1.7499    2.5175 O   0  0  0  0  0  0  0  0  0  0  0  0
   -5.4532   -2.3619    0.7146 O   0  0  0  0  0  0  0  0  0  0  0  0
   -3.4512   -0.7227    0.1152 C   0  0  0  0  0  0  0  0  0  0  0  0
   -2.9598   -1.8311   -0.8299 C   0  0  0  0  0  0  0  0  0  0  0  0
   -1.8239   -1.4611   -1.8010 C   0  0  0  0  0  0  0  0  0  0  0  0
   -0.5603   -0.7985   -1.2296 C   0  0  0  0  0  0  0  0  0  0  0  0
    0.4430   -1.7307   -0.5419 C   0  0  0  0  0  0  0  0  0  0  0  0
   -0.0298   -2.4158    0.7419 C   0  0  0  0  0  0  0  0  0  0  0  0
    0.9560   -1.3023    0.8310 C   0  0  0  0  0  0  0  0  0  0  0  0
    1.4451   -2.4340   -1.5164 C   0  0  2  0  0  0  0  0  0  0  0  0
    2.0128   -3.8029   -1.0362 C   0  0  0  0  0  0  0  0  0  0  0  0
    1.0170   -4.7219   -0.9349 F   0  0  0  0  0  0  0  0  0  0  0  0
    2.6406   -3.7599    0.1569 F   0  0  0  0  0  0  0  0  0  0  0  0
    2.8897   -4.2984   -1.9489 F   0  0  0  0  0  0  0  0  0  0  0  0
    2.4880   -1.5138   -2.0948 N   0  0  0  0  0  0  0  0  0  0  0  0
   -4.1854    0.4366   -0.5577 C   0  0  0  0  0  0  0  0  0  0  0  0
    7.2183   -1.1313    2.0562 H   0  0  0  0  0  0  0  0  0  0  0  0
    7.3840    0.0530    3.3012 H   0  0  0  0  0  0  0  0  0  0  0  0
    5.8918   -1.9797    0.6341 H   0  0  0  0  0  0  0  0  0  0  0  0
    3.8485    2.5005    1.5888 H   0  0  0  0  0  0  0  0  0  0  0  0
    1.4289    3.9266    1.0547 H   0  0  0  0  0  0  0  0  0  0  0  0
   -0.1331    2.7694   -2.8286 H   0  0  0  0  0  0  0  0  0  0  0  0
    1.6397    1.1277   -3.0817 H   0  0  0  0  0  0  0  0  0  0  0  0
   -0.7390    4.0046    1.6962 H   0  0  0  0  0  0  0  0  0  0  0  0
   -2.8997    3.0616    2.2361 H   0  0  0  0  0  0  0  0  0  0  0  0
   -5.3907    2.1115    2.1140 H   0  0  0  0  0  0  0  0  0  0  0  0
   -3.9432    1.1480    2.4591 H   0  0  0  0  0  0  0  0  0  0  0  0
   -5.9990   -0.1893    2.8104 H   0  0  0  0  0  0  0  0  0  0  0  0
   -6.4554    0.0481    1.1089 H   0  0  0  0  0  0  0  0  0  0  0  0
   -2.6016   -0.3421    0.6940 H   0  0  0  0  0  0  0  0  0  0  0  0
   -2.6468   -2.7005   -0.2409 H   0  0  0  0  0  0  0  0  0  0  0  0
   -3.8070   -2.1868   -1.4313 H   0  0  0  0  0  0  0  0  0  0  0  0
   -1.5413   -2.3655   -2.3536 H   0  0  0  0  0  0  0  0  0  0  0  0
   -2.2428   -0.7747   -2.5480 H   0  0  0  0  0  0  0  0  0  0  0  0
   -0.0478   -0.3411   -2.0804 H   0  0  0  0  0  0  0  0  0  0  0  0
   -0.8324    0.0331   -0.5712 H   0  0  0  0  0  0  0  0  0  0  0  0
   -1.0060   -2.2077    1.1644 H   0  0  0  0  0  0  0  0  0  0  0  0
    0.3123   -3.4115    1.0013 H   0  0  0  0  0  0  0  0  0  0  0  0
    0.6241   -0.3520    1.2361 H   0  0  0  0  0  0  0  0  0  0  0  0
    1.9556   -1.5710    1.1545 H   0  0  0  0  0  0  0  0  0  0  0  0
    0.8364   -2.7048   -2.3894 H   0  0  0  0  0  0  0  0  0  0  0  0
    3.0352   -2.0245   -2.7882 H   0  0  0  0  0  0  0  0  0  0  0  0
   -3.6692    0.7199   -1.4800 H   0  0  0  0  0  0  0  0  0  0  0  0
   -5.1928    0.1400   -0.8761 H   0  0  0  0  0  0  0  0  0  0  0  0
  1  2  1  0
  2  3  2  0
  2  4  1  0
  4  5  2  0
  5  6  1  0
  6  7  2  0
  7  8  1  0
  8  9  2  0
  9 10  1  0
 10 11  1  0
 11 12  2  0
 12 13  1  0
 13 14  2  0
 14 15  1  0
 15 16  2  0
 13 17  1  0
 17 18  2  0
 18 19  1  0
 19 20  2  0
 20 21  1  0
 21 22  2  0
 20 23  1  0
 23 24  1  0
 24 25  1  0
 25 26  1  0
 26 27  2  0
 26 28  2  0
 26 29  1  0
 29 30  1  0
 30 31  1  0
 31 32  1  0
 32 33  1  0
 33 34  1  0
 34 35  1  0
 33 36  1  0
 36 37  1  0
 37 38  1  0
 37 39  1  0
 37 40  1  0
 36 41  1  0
 29 42  1  0
  9  4  1  0
 16 11  1  0
 22 17  1  0
 42 23  1  0
 41  7  1  0
 16  8  1  0
 35 33  1  0
  1 43  1  0
  1 44  1  0
  5 45  1  0
 10 46  1  0
 12 47  1  0
 14 48  1  0
 15 49  1  0
 18 50  1  0
 19 51  1  0
 24 52  1  0
 24 53  1  0
 25 54  1  0
 25 55  1  0
 29 56  1  0
 30 57  1  0
 30 58  1  0
 31 59  1  0
 31 60  1  0
 32 61  1  0
 32 62  1  0
 34 63  1  0
 34 64  1  0
 35 65  1  0
 35 66  1  0
 36 67  1  6
 41 68  1  0
 42 69  1  0
 42 70  1  0
M  END
>  <candidate_id>  (63) 
CAND_1ec7ae5d21

>  <source_generator>  (63) 
v5_3_model_guided_macrocycle

>  <parent_mol_id>  (63) 
JAK2_b8536fbab5

>  <canonical_smiles>  (63) 
NC(=O)c1cnc2c3c1[nH]c1cc(ccc13)-c1ccc(nn1)N1CCS(=O)(=O)C(CCCC3(CC3)[C@H](C(F)(F)F)N2)C1

>  <inchikey>  (63) 
VUSYNXZVOKNMIM-IIVOFZELSA-N

>  <valid_rdkit>  (63) 
True

>  <unique_flag>  (63) 
True

>  <novel_flag>  (63) 
True

>  <mw>  (63) 
599.639

>  <logp>  (63) 
4.1823

>  <tpsa>  (63) 
146.96

>  <hbd>  (63) 
3

>  <hba>  (63) 
8

>  <rotatable_bonds>  (63) 
1

>  <qed>  (63) 
0.2953

>  <sa_score>  (63) 
5.412

>  <murcko_scaffold>  (63) 
O=S1(=O)CCN2CC1CCCC1(CC1)CNc1nccc3[nH]c4cc(ccc4c13)-c1ccc2nn1

>  <max_ring_size>  (63) 
19

>  <has_macrocycle_12_20>  (63) 
True

>  <has_constrained_ring_8_11>  (63) 
False

>  <passes_basic_filters>  (63) 
True

>  <generation_notes>  (63) 
v5_3_model_guided_anchor_pair=9-28;anchor_scores=0.691,0.079;linker_length=3;target_ring=18;linker_prob=0.649;chemotype=alkyl

$$$$
CAND_79995adf19
     RDKit          3D

 68 74  0  0  0  0  0  0  0  0999 V2000
    7.3142   -0.0547   -1.6388 N   0  0  0  0  0  0  0  0  0  0  0  0
    6.0888   -0.6420   -1.5044 C   0  0  0  0  0  0  0  0  0  0  0  0
    5.7135   -1.4845   -2.3145 O   0  0  0  0  0  0  0  0  0  0  0  0
    5.2274   -0.2536   -0.3679 C   0  0  0  0  0  0  0  0  0  0  0  0
    5.5030    0.7624    0.5375 C   0  0  0  0  0  0  0  0  0  0  0  0
    4.6885    1.1576    1.5519 N   0  0  0  0  0  0  0  0  0  0  0  0
    3.4973    0.5425    1.7318 C   0  0  0  0  0  0  0  0  0  0  0  0
    3.1816   -0.5784    0.9329 C   0  0  0  0  0  0  0  0  0  0  0  0
    4.0178   -0.9137   -0.1308 C   0  0  0  0  0  0  0  0  0  0  0  0
    3.3963   -1.9269   -0.8328 N   0  0  0  0  0  0  0  0  0  0  0  0
    2.1883   -2.2487   -0.2619 C   0  0  0  0  0  0  0  0  0  0  0  0
    1.1500   -3.0826   -0.7123 C   0  0  0  0  0  0  0  0  0  0  0  0
   -0.0192   -3.1596    0.0700 C   0  0  0  0  0  0  0  0  0  0  0  0
   -0.0086   -2.5797    1.3556 C   0  0  0  0  0  0  0  0  0  0  0  0
    1.0296   -1.7556    1.7867 C   0  0  0  0  0  0  0  0  0  0  0  0
    2.1041   -1.5159    0.9199 C   0  0  0  0  0  0  0  0  0  0  0  0
   -1.3313   -3.5718   -0.4830 C   0  0  0  0  0  0  0  0  0  0  0  0
   -1.7376   -3.1280   -1.7354 C   0  0  0  0  0  0  0  0  0  0  0  0
   -3.0651   -2.7312   -1.8989 C   0  0  0  0  0  0  0  0  0  0  0  0
   -3.9100   -2.7791   -0.7980 C   0  0  0  0  0  0  0  0  0  0  0  0
   -3.5533   -3.5259    0.2688 N   0  0  0  0  0  0  0  0  0  0  0  0
   -2.2597   -3.9304    0.4286 N   0  0  0  0  0  0  0  0  0  0  0  0
   -4.8548   -1.7680   -0.5802 N   0  0  0  0  0  0  0  0  0  0  0  0
   -5.7234   -1.2739   -1.6495 C   0  0  0  0  0  0  0  0  0  0  0  0
   -6.5239   -0.0669   -1.1836 C   0  0  0  0  0  0  0  0  0  0  0  0
   -5.4159    1.2837   -0.7806 S   0  0  0  0  0  0  0  0  0  0  0  0
   -5.9540    1.9752    0.3760 O   0  0  0  0  0  0  0  0  0  0  0  0
   -5.1406    2.0079   -2.0076 O   0  0  0  0  0  0  0  0  0  0  0  0
   -3.9103    0.4661   -0.2875 C   0  0  0  0  0  0  0  0  0  0  0  0
   -2.9990    1.3641    0.5489 C   0  0  0  0  0  0  0  0  0  0  0  0
   -1.2768    0.7445    0.3718 S   0  0  0  0  0  0  0  0  0  0  0  0
   -0.3954    1.7107    1.6278 C   0  0  0  0  0  0  0  0  0  0  0  0
    0.9672    2.2726    1.1942 C   0  0  0  0  0  0  0  0  0  0  0  0
    0.8573    3.4201    0.1819 C   0  0  0  0  0  0  0  0  0  0  0  0
    1.5170    2.1477   -0.2316 C   0  0  0  0  0  0  0  0  0  0  0  0
    1.9800    2.3714    2.3771 C   0  0  2  0  0  0  0  0  0  0  0  0
    2.9451    3.5941    2.3629 C   0  0  0  0  0  0  0  0  0  0  0  0
    2.2414    4.7479    2.5156 F   0  0  0  0  0  0  0  0  0  0  0  0
    3.6784    3.7219    1.2391 F   0  0  0  0  0  0  0  0  0  0  0  0
    3.8005    3.5371    3.4172 F   0  0  0  0  0  0  0  0  0  0  0  0
    2.6402    1.0648    2.6952 N   0  0  0  0  0  0  0  0  0  0  0  0
   -4.3467   -0.8086    0.4278 C   0  0  0  0  0  0  0  0  0  0  0  0
    7.7176    0.6249   -1.0127 H   0  0  0  0  0  0  0  0  0  0  0  0
    7.8754   -0.3481   -2.4294 H   0  0  0  0  0  0  0  0  0  0  0  0
    6.4125    1.3507    0.4751 H   0  0  0  0  0  0  0  0  0  0  0  0
    3.7723   -2.3181   -1.6894 H   0  0  0  0  0  0  0  0  0  0  0  0
    1.2098   -3.5539   -1.6884 H   0  0  0  0  0  0  0  0  0  0  0  0
   -0.8871   -2.6511    1.9972 H   0  0  0  0  0  0  0  0  0  0  0  0
    0.9545   -1.2348    2.7362 H   0  0  0  0  0  0  0  0  0  0  0  0
   -1.0157   -2.8515   -2.4973 H   0  0  0  0  0  0  0  0  0  0  0  0
   -3.3244   -2.1790   -2.7940 H   0  0  0  0  0  0  0  0  0  0  0  0
   -6.4110   -2.0733   -1.9483 H   0  0  0  0  0  0  0  0  0  0  0  0
   -5.1439   -0.9901   -2.5351 H   0  0  0  0  0  0  0  0  0  0  0  0
   -7.2033    0.2865   -1.9645 H   0  0  0  0  0  0  0  0  0  0  0  0
   -7.1071   -0.2990   -0.2866 H   0  0  0  0  0  0  0  0  0  0  0  0
   -3.4121    0.2277   -1.2374 H   0  0  0  0  0  0  0  0  0  0  0  0
   -3.0181    2.3963    0.1854 H   0  0  0  0  0  0  0  0  0  0  0  0
   -3.2926    1.3570    1.6033 H   0  0  0  0  0  0  0  0  0  0  0  0
   -0.2673    1.0501    2.4912 H   0  0  0  0  0  0  0  0  0  0  0  0
   -1.0230    2.5461    1.9583 H   0  0  0  0  0  0  0  0  0  0  0  0
    1.4802    4.3036    0.2560 H   0  0  0  0  0  0  0  0  0  0  0  0
   -0.1091    3.6431   -0.2627 H   0  0  0  0  0  0  0  0  0  0  0  0
    2.5881    2.1872   -0.4030 H   0  0  0  0  0  0  0  0  0  0  0  0
    1.0186    1.5171   -0.9580 H   0  0  0  0  0  0  0  0  0  0  0  0
    1.3568    2.5633    3.2620 H   0  0  0  0  0  0  0  0  0  0  0  0
    3.1845    1.1592    3.5531 H   0  0  0  0  0  0  0  0  0  0  0  0
   -5.1421   -0.6111    1.1581 H   0  0  0  0  0  0  0  0  0  0  0  0
   -3.5155   -1.2154    1.0167 H   0  0  0  0  0  0  0  0  0  0  0  0
  1  2  1  0
  2  3  2  0
  2  4  1  0
  4  5  2  0
  5  6  1  0
  6  7  2  0
  7  8  1  0
  8  9  2  0
  9 10  1  0
 10 11  1  0
 11 12  2  0
 12 13  1  0
 13 14  2  0
 14 15  1  0
 15 16  2  0
 13 17  1  0
 17 18  2  0
 18 19  1  0
 19 20  2  0
 20 21  1  0
 21 22  2  0
 20 23  1  0
 23 24  1  0
 24 25  1  0
 25 26  1  0
 26 27  2  0
 26 28  2  0
 26 29  1  0
 29 30  1  0
 30 31  1  0
 31 32  1  0
 32 33  1  0
 33 34  1  0
 34 35  1  0
 33 36  1  0
 36 37  1  0
 37 38  1  0
 37 39  1  0
 37 40  1  0
 36 41  1  0
 29 42  1  0
  9  4  1  0
 16 11  1  0
 22 17  1  0
 42 23  1  0
 41  7  1  0
 16  8  1  0
 35 33  1  0
  1 43  1  0
  1 44  1  0
  5 45  1  0
 10 46  1  0
 12 47  1  0
 14 48  1  0
 15 49  1  0
 18 50  1  0
 19 51  1  0
 24 52  1  0
 24 53  1  0
 25 54  1  0
 25 55  1  0
 29 56  1  0
 30 57  1  0
 30 58  1  0
 32 59  1  0
 32 60  1  0
 34 61  1  0
 34 62  1  0
 35 63  1  0
 35 64  1  0
 36 65  1  1
 41 66  1  0
 42 67  1  0
 42 68  1  0
M  END
>  <candidate_id>  (64) 
CAND_79995adf19

>  <source_generator>  (64) 
v5_3_model_guided_macrocycle

>  <parent_mol_id>  (64) 
JAK2_b8536fbab5

>  <canonical_smiles>  (64) 
NC(=O)c1cnc2c3c1[nH]c1cc(ccc13)-c1ccc(nn1)N1CCS(=O)(=O)C(CSCC3(CC3)[C@H](C(F)(F)F)N2)C1

>  <inchikey>  (64) 
KWOAKWBMRZHFMC-FFMAFDDDSA-N

>  <valid_rdkit>  (64) 
True

>  <unique_flag>  (64) 
True

>  <novel_flag>  (64) 
True

>  <mw>  (64) 
617.679

>  <logp>  (64) 
3.7452

>  <tpsa>  (64) 
146.96

>  <hbd>  (64) 
3

>  <hba>  (64) 
9

>  <rotatable_bonds>  (64) 
1

>  <qed>  (64) 
0.2907

>  <sa_score>  (64) 
5.512

>  <murcko_scaffold>  (64) 
O=S1(=O)CCN2CC1CSCC1(CC1)CNc1nccc3[nH]c4cc(ccc4c13)-c1ccc2nn1

>  <max_ring_size>  (64) 
19

>  <has_macrocycle_12_20>  (64) 
True

>  <has_constrained_ring_8_11>  (64) 
False

>  <passes_basic_filters>  (64) 
True

>  <generation_notes>  (64) 
v5_3_model_guided_anchor_pair=9-28;anchor_scores=0.691,0.079;linker_length=3;target_ring=18;linker_prob=0.649;chemotype=thioether

$$$$
CAND_893be87c2e
     RDKit          3D

 69 75  0  0  0  0  0  0  0  0999 V2000
    7.5732    1.1976    1.0047 N   0  0  0  0  0  0  0  0  0  0  0  0
    6.3830    1.6258    0.4895 C   0  0  0  0  0  0  0  0  0  0  0  0
    6.1028    2.8205    0.4882 O   0  0  0  0  0  0  0  0  0  0  0  0
    5.4334    0.6258   -0.0420 C   0  0  0  0  0  0  0  0  0  0  0  0
    5.7163   -0.7179   -0.2363 C   0  0  0  0  0  0  0  0  0  0  0  0
    4.8354   -1.6495   -0.6846 N   0  0  0  0  0  0  0  0  0  0  0  0
    3.5635   -1.2870   -0.9740 C   0  0  0  0  0  0  0  0  0  0  0  0
    3.2129    0.0794   -0.9198 C   0  0  0  0  0  0  0  0  0  0  0  0
    4.1388    0.9956   -0.4188 C   0  0  0  0  0  0  0  0  0  0  0  0
    3.5135    2.2237   -0.3682 N   0  0  0  0  0  0  0  0  0  0  0  0
    2.2222    2.1353   -0.8259 C   0  0  0  0  0  0  0  0  0  0  0  0
    1.1919    3.0886   -0.8372 C   0  0  0  0  0  0  0  0  0  0  0  0
   -0.0731    2.6937   -1.3125 C   0  0  0  0  0  0  0  0  0  0  0  0
   -0.2109    1.4189   -1.8957 C   0  0  0  0  0  0  0  0  0  0  0  0
    0.8290    0.4880   -1.8835 C   0  0  0  0  0  0  0  0  0  0  0  0
    2.0442    0.8269   -1.2694 C   0  0  0  0  0  0  0  0  0  0  0  0
   -1.2920    3.4424   -0.9510 C   0  0  0  0  0  0  0  0  0  0  0  0
   -2.4501    3.4061   -1.7096 C   0  0  0  0  0  0  0  0  0  0  0  0
   -3.6654    3.2726   -1.0378 C   0  0  0  0  0  0  0  0  0  0  0  0
   -3.6355    3.1355    0.3432 C   0  0  0  0  0  0  0  0  0  0  0  0
   -2.5551    3.6064    1.0007 N   0  0  0  0  0  0  0  0  0  0  0  0
   -1.3659    3.7350    0.3625 N   0  0  0  0  0  0  0  0  0  0  0  0
   -4.4645    2.2170    1.0216 N   0  0  0  0  0  0  0  0  0  0  0  0
   -5.6515    1.6407    0.3659 C   0  0  0  0  0  0  0  0  0  0  0  0
   -6.0824    0.3307    1.0053 C   0  0  0  0  0  0  0  0  0  0  0  0
   -4.7647   -0.8773    0.8573 S   0  0  0  0  0  0  0  0  0  0  0  0
   -4.8540   -1.7484    2.0152 O   0  0  0  0  0  0  0  0  0  0  0  0
   -4.8387   -1.4327   -0.4821 O   0  0  0  0  0  0  0  0  0  0  0  0
   -3.2702    0.0977    0.9856 C   0  0  0  0  0  0  0  0  0  0  0  0
   -2.0558   -0.6756    1.5010 C   0  0  0  0  0  0  0  0  0  0  0  0
   -1.4891   -1.5363    0.4472 N   0  0  0  0  0  0  0  0  0  0  0  0
   -0.1018   -1.9214    0.7316 C   0  0  0  0  0  0  0  0  0  0  0  0
    0.4925   -2.9075   -0.2825 C   0  0  0  0  0  0  0  0  0  0  0  0
   -0.1861   -3.1402   -1.6338 C   0  0  0  0  0  0  0  0  0  0  0  0
   -0.3061   -4.1826   -0.5671 C   0  0  0  0  0  0  0  0  0  0  0  0
    2.0413   -3.0762   -0.2146 C   0  0  2  0  0  0  0  0  0  0  0  0
    2.6323   -2.9724    1.2243 C   0  0  0  0  0  0  0  0  0  0  0  0
    2.6171   -1.7183    1.7256 F   0  0  0  0  0  0  0  0  0  0  0  0
    1.9146   -3.7473    2.0818 F   0  0  0  0  0  0  0  0  0  0  0  0
    3.9035   -3.4345    1.2869 F   0  0  0  0  0  0  0  0  0  0  0  0
    2.6966   -2.3134   -1.3227 N   0  0  0  0  0  0  0  0  0  0  0  0
   -3.6460    1.2966    1.8598 C   0  0  0  0  0  0  0  0  0  0  0  0
    7.8630    0.2367    1.1021 H   0  0  0  0  0  0  0  0  0  0  0  0
    8.1952    1.9108    1.3660 H   0  0  0  0  0  0  0  0  0  0  0  0
    6.6986   -1.1290   -0.0287 H   0  0  0  0  0  0  0  0  0  0  0  0
    3.9584    3.0606   -0.0073 H   0  0  0  0  0  0  0  0  0  0  0  0
    1.3332    4.0620   -0.3742 H   0  0  0  0  0  0  0  0  0  0  0  0
   -1.1763    1.0717   -2.2601 H   0  0  0  0  0  0  0  0  0  0  0  0
    0.6657   -0.5145   -2.2662 H   0  0  0  0  0  0  0  0  0  0  0  0
   -2.4104    3.2505   -2.7831 H   0  0  0  0  0  0  0  0  0  0  0  0
   -4.5465    3.0500   -1.6257 H   0  0  0  0  0  0  0  0  0  0  0  0
   -6.4703    2.3668    0.4150 H   0  0  0  0  0  0  0  0  0  0  0  0
   -5.4611    1.4244   -0.6907 H   0  0  0  0  0  0  0  0  0  0  0  0
   -6.9629   -0.0841    0.5054 H   0  0  0  0  0  0  0  0  0  0  0  0
   -6.3148    0.4556    2.0674 H   0  0  0  0  0  0  0  0  0  0  0  0
   -3.0471    0.4385   -0.0341 H   0  0  0  0  0  0  0  0  0  0  0  0
   -2.2969   -1.2727    2.3871 H   0  0  0  0  0  0  0  0  0  0  0  0
   -1.2922    0.0546    1.7972 H   0  0  0  0  0  0  0  0  0  0  0  0
   -2.0661   -2.3732    0.3546 H   0  0  0  0  0  0  0  0  0  0  0  0
   -0.0551   -2.3769    1.7272 H   0  0  0  0  0  0  0  0  0  0  0  0
    0.5139   -1.0166    0.7400 H   0  0  0  0  0  0  0  0  0  0  0  0
    0.4338   -3.3632   -2.4958 H   0  0  0  0  0  0  0  0  0  0  0  0
   -1.0669   -2.5626   -1.8920 H   0  0  0  0  0  0  0  0  0  0  0  0
    0.2165   -5.1206   -0.7245 H   0  0  0  0  0  0  0  0  0  0  0  0
   -1.2737   -4.3250   -0.0989 H   0  0  0  0  0  0  0  0  0  0  0  0
    2.2310   -4.1254   -0.4821 H   0  0  0  0  0  0  0  0  0  0  0  0
    3.2126   -2.9470   -1.9289 H   0  0  0  0  0  0  0  0  0  0  0  0
   -4.2261    0.9953    2.7413 H   0  0  0  0  0  0  0  0  0  0  0  0
   -2.7546    1.7708    2.2847 H   0  0  0  0  0  0  0  0  0  0  0  0
  1  2  1  0
  2  3  2  0
  2  4  1  0
  4  5  2  0
  5  6  1  0
  6  7  2  0
  7  8  1  0
  8  9  2  0
  9 10  1  0
 10 11  1  0
 11 12  2  0
 12 13  1  0
 13 14  2  0
 14 15  1  0
 15 16  2  0
 13 17  1  0
 17 18  2  0
 18 19  1  0
 19 20  2  0
 20 21  1  0
 21 22  2  0
 20 23  1  0
 23 24  1  0
 24 25  1  0
 25 26  1  0
 26 27  2  0
 26 28  2  0
 26 29  1  0
 29 30  1  0
 30 31  1  0
 31 32  1  0
 32 33  1  0
 33 34  1  0
 34 35  1  0
 33 36  1  0
 36 37  1  0
 37 38  1  0
 37 39  1  0
 37 40  1  0
 36 41  1  0
 29 42  1  0
  9  4  1  0
 16 11  1  0
 22 17  1  0
 42 23  1  0
 41  7  1  0
 16  8  1  0
 35 33  1  0
  1 43  1  0
  1 44  1  0
  5 45  1  0
 10 46  1  0
 12 47  1  0
 14 48  1  0
 15 49  1  0
 18 50  1  0
 19 51  1  0
 24 52  1  0
 24 53  1  0
 25 54  1  0
 25 55  1  0
 29 56  1  0
 30 57  1  0
 30 58  1  0
 31 59  1  0
 32 60  1  0
 32 61  1  0
 34 62  1  0
 34 63  1  0
 35 64  1  0
 35 65  1  0
 36 66  1  6
 41 67  1  0
 42 68  1  0
 42 69  1  0
M  END
>  <candidate_id>  (65) 
CAND_893be87c2e

>  <source_generator>  (65) 
v5_3_model_guided_macrocycle

>  <parent_mol_id>  (65) 
JAK2_b8536fbab5

>  <canonical_smiles>  (65) 
NC(=O)c1cnc2c3c1[nH]c1cc(ccc13)-c1ccc(nn1)N1CCS(=O)(=O)C(CNCC3(CC3)[C@H](C(F)(F)F)N2)C1

>  <inchikey>  (65) 
IAEQNVPUVYIAKQ-FFMAFDDDSA-N

>  <valid_rdkit>  (65) 
True

>  <unique_flag>  (65) 
True

>  <novel_flag>  (65) 
True

>  <mw>  (65) 
600.627

>  <logp>  (65) 
2.6016

>  <tpsa>  (65) 
158.99

>  <hbd>  (65) 
4

>  <hba>  (65) 
9

>  <rotatable_bonds>  (65) 
1

>  <qed>  (65) 
0.2577

>  <sa_score>  (65) 
5.417

>  <murcko_scaffold>  (65) 
O=S1(=O)CCN2CC1CNCC1(CC1)CNc1nccc3[nH]c4cc(ccc4c13)-c1ccc2nn1

>  <max_ring_size>  (65) 
19

>  <has_macrocycle_12_20>  (65) 
True

>  <has_constrained_ring_8_11>  (65) 
False

>  <passes_basic_filters>  (65) 
True

>  <generation_notes>  (65) 
v5_3_model_guided_anchor_pair=9-28;anchor_scores=0.691,0.079;linker_length=3;target_ring=18;linker_prob=0.649;chemotype=aza

$$$$
CAND_2f2a0d40fd
     RDKit          3D

 68 74  0  0  0  0  0  0  0  0999 V2000
    7.7323    0.9275   -1.7500 N   0  0  0  0  0  0  0  0  0  0  0  0
    6.5235    1.4370   -1.3717 C   0  0  0  0  0  0  0  0  0  0  0  0
    6.2284    2.5996   -1.6319 O   0  0  0  0  0  0  0  0  0  0  0  0
    5.5835    0.5712   -0.6312 C   0  0  0  0  0  0  0  0  0  0  0  0
    5.7182   -0.8009   -0.4641 C   0  0  0  0  0  0  0  0  0  0  0  0
    4.8070   -1.6158    0.1324 N   0  0  0  0  0  0  0  0  0  0  0  0
    3.6690   -1.0878    0.6447 C   0  0  0  0  0  0  0  0  0  0  0  0
    3.5269    0.3185    0.6658 C   0  0  0  0  0  0  0  0  0  0  0  0
    4.4258    1.1016   -0.0561 C   0  0  0  0  0  0  0  0  0  0  0  0
    3.8927    2.3757   -0.1130 N   0  0  0  0  0  0  0  0  0  0  0  0
    2.6562    2.3985    0.4882 C   0  0  0  0  0  0  0  0  0  0  0  0
    1.5930    3.3070    0.3985 C   0  0  0  0  0  0  0  0  0  0  0  0
    0.3873    2.9283    1.0269 C   0  0  0  0  0  0  0  0  0  0  0  0
    0.4168    1.9251    2.0137 C   0  0  0  0  0  0  0  0  0  0  0  0
    1.4976    1.0543    2.1147 C   0  0  0  0  0  0  0  0  0  0  0  0
    2.5533    1.2114    1.2058 C   0  0  0  0  0  0  0  0  0  0  0  0
   -0.9316    3.2359    0.4270 C   0  0  0  0  0  0  0  0  0  0  0  0
   -1.0877    3.0955   -0.9478 C   0  0  0  0  0  0  0  0  0  0  0  0
   -2.2862    2.5858   -1.4296 C   0  0  0  0  0  0  0  0  0  0  0  0
   -3.3033    2.2785   -0.5414 C   0  0  0  0  0  0  0  0  0  0  0  0
   -3.2042    2.6722    0.7443 N   0  0  0  0  0  0  0  0  0  0  0  0
   -2.0074    3.1323    1.2406 N   0  0  0  0  0  0  0  0  0  0  0  0
   -4.3402    1.4448   -0.9344 N   0  0  0  0  0  0  0  0  0  0  0  0
   -5.6603    1.6727   -0.3537 C   0  0  0  0  0  0  0  0  0  0  0  0
   -5.8850    0.8193    0.8722 C   0  0  0  0  0  0  0  0  0  0  0  0
   -5.7153   -0.8884    0.4270 S   0  0  0  0  0  0  0  0  0  0  0  0
   -5.7301   -1.6654    1.6532 O   0  0  0  0  0  0  0  0  0  0  0  0
   -6.6900   -1.1815   -0.6092 O   0  0  0  0  0  0  0  0  0  0  0  0
   -4.0833   -0.9787   -0.3031 C   0  0  0  0  0  0  0  0  0  0  0  0
   -2.9936   -0.9357    0.7723 C   0  0  0  0  0  0  0  0  0  0  0  0
   -1.7781   -1.5728    0.3208 O   0  0  0  0  0  0  0  0  0  0  0  0
   -0.9310   -1.8703    1.4431 C   0  0  0  0  0  0  0  0  0  0  0  0
    0.2750   -2.6951    1.0164 C   0  0  0  0  0  0  0  0  0  0  0  0
    0.0255   -4.1567    0.6537 C   0  0  0  0  0  0  0  0  0  0  0  0
    0.6728   -3.8342    1.9606 C   0  0  0  0  0  0  0  0  0  0  0  0
    1.3600   -1.8789    0.2684 C   0  0  2  0  0  0  0  0  0  0  0  0
    1.4295   -2.2034   -1.2534 C   0  0  0  0  0  0  0  0  0  0  0  0
    0.2020   -2.2506   -1.8228 F   0  0  0  0  0  0  0  0  0  0  0  0
    2.0345   -3.3918   -1.4924 F   0  0  0  0  0  0  0  0  0  0  0  0
    2.1282   -1.2562   -1.9287 F   0  0  0  0  0  0  0  0  0  0  0  0
    2.6729   -2.0038    0.9749 N   0  0  0  0  0  0  0  0  0  0  0  0
   -3.9876    0.0891   -1.3976 C   0  0  0  0  0  0  0  0  0  0  0  0
    8.3527    1.5500   -2.2537 H   0  0  0  0  0  0  0  0  0  0  0  0
    8.0756    0.0030   -1.5387 H   0  0  0  0  0  0  0  0  0  0  0  0
    6.5723   -1.3407   -0.8598 H   0  0  0  0  0  0  0  0  0  0  0  0
    4.3016    3.1202   -0.6674 H   0  0  0  0  0  0  0  0  0  0  0  0
    1.6347    4.1335   -0.3047 H   0  0  0  0  0  0  0  0  0  0  0  0
   -0.4840    1.6790    2.5760 H   0  0  0  0  0  0  0  0  0  0  0  0
    1.4380    0.1757    2.7512 H   0  0  0  0  0  0  0  0  0  0  0  0
   -0.2449    3.1675   -1.6279 H   0  0  0  0  0  0  0  0  0  0  0  0
   -2.3782    2.3301   -2.4803 H   0  0  0  0  0  0  0  0  0  0  0  0
   -5.8045    2.7321   -0.1067 H   0  0  0  0  0  0  0  0  0  0  0  0
   -6.4147    1.4421   -1.1162 H   0  0  0  0  0  0  0  0  0  0  0  0
   -6.8961    0.9565    1.2667 H   0  0  0  0  0  0  0  0  0  0  0  0
   -5.1678    1.0284    1.6706 H   0  0  0  0  0  0  0  0  0  0  0  0
   -4.0374   -1.9618   -0.7894 H   0  0  0  0  0  0  0  0  0  0  0  0
   -3.3363   -1.4699    1.6642 H   0  0  0  0  0  0  0  0  0  0  0  0
   -2.7551    0.0828    1.0845 H   0  0  0  0  0  0  0  0  0  0  0  0
   -0.6147   -0.9371    1.9165 H   0  0  0  0  0  0  0  0  0  0  0  0
   -1.5106   -2.4346    2.1845 H   0  0  0  0  0  0  0  0  0  0  0  0
    0.6372   -4.6541   -0.0900 H   0  0  0  0  0  0  0  0  0  0  0  0
   -0.9986   -4.5184    0.6647 H   0  0  0  0  0  0  0  0  0  0  0  0
    0.0932   -3.9936    2.8649 H   0  0  0  0  0  0  0  0  0  0  0  0
    1.7106   -4.1186    2.0859 H   0  0  0  0  0  0  0  0  0  0  0  0
    1.0326   -0.8380    0.3109 H   0  0  0  0  0  0  0  0  0  0  0  0
    3.0760   -2.9367    0.9273 H   0  0  0  0  0  0  0  0  0  0  0  0
   -2.9918    0.0553   -1.8560 H   0  0  0  0  0  0  0  0  0  0  0  0
   -4.6868   -0.1665   -2.2045 H   0  0  0  0  0  0  0  0  0  0  0  0
  1  2  1  0
  2  3  2  0
  2  4  1  0
  4  5  2  0
  5  6  1  0
  6  7  2  0
  7  8  1  0
  8  9  2  0
  9 10  1  0
 10 11  1  0
 11 12  2  0
 12 13  1  0
 13 14  2  0
 14 15  1  0
 15 16  2  0
 13 17  1  0
 17 18  2  0
 18 19  1  0
 19 20  2  0
 20 21  1  0
 21 22  2  0
 20 23  1  0
 23 24  1  0
 24 25  1  0
 25 26  1  0
 26 27  2  0
 26 28  2  0
 26 29  1  0
 29 30  1  0
 30 31  1  0
 31 32  1  0
 32 33  1  0
 33 34  1  0
 34 35  1  0
 33 36  1  0
 36 37  1  0
 37 38  1  0
 37 39  1  0
 37 40  1  0
 36 41  1  0
 29 42  1  0
  9  4  1  0
 16 11  1  0
 22 17  1  0
 42 23  1  0
 41  7  1  0
 16  8  1  0
 35 33  1  0
  1 43  1  0
  1 44  1  0
  5 45  1  0
 10 46  1  0
 12 47  1  0
 14 48  1  0
 15 49  1  0
 18 50  1  0
 19 51  1  0
 24 52  1  0
 24 53  1  0
 25 54  1  0
 25 55  1  0
 29 56  1  0
 30 57  1  0
 30 58  1  0
 32 59  1  0
 32 60  1  0
 34 61  1  0
 34 62  1  0
 35 63  1  0
 35 64  1  0
 36 65  1  6
 41 66  1  0
 42 67  1  0
 42 68  1  0
M  END
>  <candidate_id>  (66) 
CAND_2f2a0d40fd

>  <source_generator>  (66) 
v5_3_model_guided_macrocycle

>  <parent_mol_id>  (66) 
JAK2_b8536fbab5

>  <canonical_smiles>  (66) 
NC(=O)c1cnc2c3c1[nH]c1cc(ccc13)-c1ccc(nn1)N1CCS(=O)(=O)C(COCC3(CC3)[C@H](C(F)(F)F)N2)C1

>  <inchikey>  (66) 
GBZHOBHXRZEBCG-FFMAFDDDSA-N

>  <valid_rdkit>  (66) 
True

>  <unique_flag>  (66) 
True

>  <novel_flag>  (66) 
True

>  <mw>  (66) 
601.611

>  <logp>  (66) 
3.0286

>  <tpsa>  (66) 
156.19

>  <hbd>  (66) 
3

>  <hba>  (66) 
9

>  <rotatable_bonds>  (66) 
1

>  <qed>  (66) 
0.2985

>  <sa_score>  (66) 
5.423

>  <murcko_scaffold>  (66) 
O=S1(=O)CCN2CC1COCC1(CC1)CNc1nccc3[nH]c4cc(ccc4c13)-c1ccc2nn1

>  <max_ring_size>  (66) 
19

>  <has_macrocycle_12_20>  (66) 
True

>  <has_constrained_ring_8_11>  (66) 
False

>  <passes_basic_filters>  (66) 
True

>  <generation_notes>  (66) 
v5_3_model_guided_anchor_pair=9-28;anchor_scores=0.691,0.079;linker_length=3;target_ring=18;linker_prob=0.649;chemotype=oxa

$$$$
CAND_7f6895293f
     RDKit          3D

 70 76  0  0  0  0  0  0  0  0999 V2000
    7.7591    0.4028    2.0604 N   0  0  0  0  0  0  0  0  0  0  0  0
    6.5294    0.9460    1.8206 C   0  0  0  0  0  0  0  0  0  0  0  0
    6.1317    1.8958    2.4884 O   0  0  0  0  0  0  0  0  0  0  0  0
    5.6905    0.3772    0.7452 C   0  0  0  0  0  0  0  0  0  0  0  0
    6.0014   -0.7519   -0.0062 C   0  0  0  0  0  0  0  0  0  0  0  0
    5.2028   -1.3227   -0.9495 N   0  0  0  0  0  0  0  0  0  0  0  0
    4.0027   -0.7644   -1.2221 C   0  0  0  0  0  0  0  0  0  0  0  0
    3.6591    0.4561   -0.6047 C   0  0  0  0  0  0  0  0  0  0  0  0
    4.4639    0.9605    0.4128 C   0  0  0  0  0  0  0  0  0  0  0  0
    3.7820    2.0237    0.9734 N   0  0  0  0  0  0  0  0  0  0  0  0
    2.5677    2.2058    0.3517 C   0  0  0  0  0  0  0  0  0  0  0  0
    1.4605    2.9992    0.6930 C   0  0  0  0  0  0  0  0  0  0  0  0
    0.3169    2.9102   -0.1260 C   0  0  0  0  0  0  0  0  0  0  0  0
    0.3929    2.2051   -1.3433 C   0  0  0  0  0  0  0  0  0  0  0  0
    1.4918    1.4113   -1.6542 C   0  0  0  0  0  0  0  0  0  0  0  0
    2.5525    1.3434   -0.7407 C   0  0  0  0  0  0  0  0  0  0  0  0
   -1.0278    3.2332    0.3826 C   0  0  0  0  0  0  0  0  0  0  0  0
   -2.0406    3.6959   -0.4420 C   0  0  0  0  0  0  0  0  0  0  0  0
   -3.3252    3.1870   -0.2516 C   0  0  0  0  0  0  0  0  0  0  0  0
   -3.5385    2.2459    0.7489 C   0  0  0  0  0  0  0  0  0  0  0  0
   -2.5882    2.0698    1.6879 N   0  0  0  0  0  0  0  0  0  0  0  0
   -1.3304    2.5685    1.5166 N   0  0  0  0  0  0  0  0  0  0  0  0
   -4.5664    1.3151    0.6635 N   0  0  0  0  0  0  0  0  0  0  0  0
   -5.8947    1.6656    0.1824 C   0  0  0  0  0  0  0  0  0  0  0  0
   -6.2556    0.7850   -0.9874 C   0  0  0  0  0  0  0  0  0  0  0  0
   -6.4401   -0.8859   -0.4165 S   0  0  0  0  0  0  0  0  0  0  0  0
   -7.8201   -1.0453    0.0068 O   0  0  0  0  0  0  0  0  0  0  0  0
   -5.8855   -1.7638   -1.4297 O   0  0  0  0  0  0  0  0  0  0  0  0
   -5.4277   -0.9901    1.0414 C   0  0  0  0  0  0  0  0  0  0  0  0
   -4.1982   -0.0926    0.9727 C   0  0  0  0  0  0  0  0  0  0  0  0
   -3.1216   -0.6412   -0.0248 C   0  0  0  0  0  0  0  0  0  0  0  0
   -1.8307   -1.0676    0.6973 C   0  0  0  0  0  0  0  0  0  0  0  0
   -0.6524   -1.3789   -0.2486 C   0  0  0  0  0  0  0  0  0  0  0  0
    0.5851   -1.6693    0.5598 C   0  0  0  0  0  0  0  0  0  0  0  0
    0.9171   -3.1132    0.8229 C   0  0  0  0  0  0  0  0  0  0  0  0
    1.9111   -2.2522    0.0728 C   0  0  0  0  0  0  0  0  0  0  0  0
    2.2916   -2.5483   -1.3695 C   0  0  2  0  0  0  0  0  0  0  0  0
    2.9868   -3.9405   -1.4787 C   0  0  0  0  0  0  0  0  0  0  0  0
    2.1021   -4.9486   -1.2817 F   0  0  0  0  0  0  0  0  0  0  0  0
    3.5036   -4.1147   -2.7234 F   0  0  0  0  0  0  0  0  0  0  0  0
    3.9934   -4.1046   -0.5932 F   0  0  0  0  0  0  0  0  0  0  0  0
    3.1142   -1.4715   -2.0214 N   0  0  0  0  0  0  0  0  0  0  0  0
    8.3029    0.8210    2.8058 H   0  0  0  0  0  0  0  0  0  0  0  0
    8.1785   -0.3623    1.5554 H   0  0  0  0  0  0  0  0  0  0  0  0
    6.9288   -1.2954    0.1419 H   0  0  0  0  0  0  0  0  0  0  0  0
    4.1134    2.5288    1.7878 H   0  0  0  0  0  0  0  0  0  0  0  0
    1.4336    3.5405    1.6347 H   0  0  0  0  0  0  0  0  0  0  0  0
   -0.4745    2.1244   -1.9962 H   0  0  0  0  0  0  0  0  0  0  0  0
    1.4738    0.7676   -2.5290 H   0  0  0  0  0  0  0  0  0  0  0  0
   -1.8123    4.2562   -1.3433 H   0  0  0  0  0  0  0  0  0  0  0  0
   -4.0701    3.3849   -1.0132 H   0  0  0  0  0  0  0  0  0  0  0  0
   -5.9628    2.7164   -0.1191 H   0  0  0  0  0  0  0  0  0  0  0  0
   -6.6156    1.5490    1.0011 H   0  0  0  0  0  0  0  0  0  0  0  0
   -7.2047    1.0867   -1.4394 H   0  0  0  0  0  0  0  0  0  0  0  0
   -5.4763    0.7967   -1.7561 H   0  0  0  0  0  0  0  0  0  0  0  0
   -5.1587   -2.0408    1.1888 H   0  0  0  0  0  0  0  0  0  0  0  0
   -6.0623   -0.6868    1.8825 H   0  0  0  0  0  0  0  0  0  0  0  0
   -3.7781   -0.1161    1.9876 H   0  0  0  0  0  0  0  0  0  0  0  0
   -3.4961   -1.5177   -0.5634 H   0  0  0  0  0  0  0  0  0  0  0  0
   -2.8777    0.1051   -0.7897 H   0  0  0  0  0  0  0  0  0  0  0  0
   -1.5185   -0.2790    1.3894 H   0  0  0  0  0  0  0  0  0  0  0  0
   -2.0411   -1.9490    1.3165 H   0  0  0  0  0  0  0  0  0  0  0  0
   -0.9116   -2.2205   -0.9009 H   0  0  0  0  0  0  0  0  0  0  0  0
   -0.4664   -0.5182   -0.8942 H   0  0  0  0  0  0  0  0  0  0  0  0
    0.6948   -0.9517    1.3708 H   0  0  0  0  0  0  0  0  0  0  0  0
    1.1548   -3.3947    1.8441 H   0  0  0  0  0  0  0  0  0  0  0  0
    0.3723   -3.8802    0.2826 H   0  0  0  0  0  0  0  0  0  0  0  0
    2.7968   -2.0296    0.6649 H   0  0  0  0  0  0  0  0  0  0  0  0
    1.3751   -2.6131   -1.9677 H   0  0  0  0  0  0  0  0  0  0  0  0
    3.6356   -1.8580   -2.8089 H   0  0  0  0  0  0  0  0  0  0  0  0
  1  2  1  0
  2  3  2  0
  2  4  1  0
  4  5  1  0
  5  6  2  0
  6  7  1  0
  7  8  2  0
  8  9  1  0
  9 10  1  0
 10 11  1  0
 11 12  1  0
 12 13  2  0
 13 14  1  0
 14 15  2  0
 15 16  1  0
 13 17  1  0
 17 18  2  0
 18 19  1  0
 19 20  2  0
 20 21  1  0
 21 22  2  0
 20 23  1  0
 23 24  1  0
 24 25  1  0
 25 26  1  0
 26 27  2  0
 26 28  2  0
 26 29  1  0
 29 30  1  0
 30 31  1  0
 31 32  1  0
 32 33  1  0
 33 34  1  0
 34 35  1  0
 35 36  1  0
 36 37  1  0
 37 38  1  0
 38 39  1  0
 38 40  1  0
 38 41  1  0
 37 42  1  0
  9  4  2  0
 16 11  2  0
 22 17  1  0
 30 23  1  0
 36 34  1  0
 42  7  1  0
 16  8  1  0
  1 43  1  0
  1 44  1  0
  5 45  1  0
 10 46  1  0
 12 47  1  0
 14 48  1  0
 15 49  1  0
 18 50  1  0
 19 51  1  0
 24 52  1  0
 24 53  1  0
 25 54  1  0
 25 55  1  0
 29 56  1  0
 29 57  1  0
 30 58  1  0
 31 59  1  0
 31 60  1  0
 32 61  1  0
 32 62  1  0
 33 63  1  0
 33 64  1  0
 34 65  1  0
 35 66  1  0
 35 67  1  0
 36 68  1  0
 37 69  1  6
 42 70  1  0
M  END
>  <candidate_id>  (67) 
CAND_7f6895293f

>  <source_generator>  (67) 
v5_3_model_guided_macrocycle

>  <parent_mol_id>  (67) 
JAK2_b8536fbab5

>  <canonical_smiles>  (67) 
NC(=O)c1cnc2c3c1[nH]c1cc(ccc13)-c1ccc(nn1)N1CCS(=O)(=O)CC1CCCC1CC1[C@H](C(F)(F)F)N2

>  <inchikey>  (67) 
ZJAZRXXCVYSBPT-KQKSEEEZSA-N

>  <valid_rdkit>  (67) 
True

>  <unique_flag>  (67) 
True

>  <novel_flag>  (67) 
True

>  <mw>  (67) 
599.639

>  <logp>  (67) 
4.0382

>  <tpsa>  (67) 
146.96

>  <hbd>  (67) 
3

>  <hba>  (67) 
8

>  <rotatable_bonds>  (67) 
1

>  <qed>  (67) 
0.2972

>  <sa_score>  (67) 
5.912

>  <murcko_scaffold>  (67) 
O=S1(=O)CCN2c3ccc(nn3)-c3ccc4c(c3)[nH]c3ccnc(c34)NCC3CC3CCCC2C1

>  <max_ring_size>  (67) 
19

>  <has_macrocycle_12_20>  (67) 
True

>  <has_constrained_ring_8_11>  (67) 
False

>  <passes_basic_filters>  (67) 
True

>  <generation_notes>  (67) 
v5_3_model_guided_anchor_pair=10-27;anchor_scores=0.079,0.079;linker_length=3;target_ring=18;linker_prob=0.649;chemotype=oxa_aza

$$$$
CAND_8f245c542f
     RDKit          3D

 68 74  0  0  0  0  0  0  0  0999 V2000
    8.0706   -1.9651    1.1420 N   0  0  0  0  0  0  0  0  0  0  0  0
    6.7636   -2.2429    0.8613 C   0  0  0  0  0  0  0  0  0  0  0  0
    6.2892   -3.3397    1.1416 O   0  0  0  0  0  0  0  0  0  0  0  0
    5.9277   -1.2013    0.2290 C   0  0  0  0  0  0  0  0  0  0  0  0
    6.3724    0.0534   -0.1763 C   0  0  0  0  0  0  0  0  0  0  0  0
    5.5937    1.0423   -0.6964 N   0  0  0  0  0  0  0  0  0  0  0  0
    4.2714    0.8210   -0.8639 C   0  0  0  0  0  0  0  0  0  0  0  0
    3.7612   -0.4701   -0.6200 C   0  0  0  0  0  0  0  0  0  0  0  0
    4.5704   -1.4291   -0.0187 C   0  0  0  0  0  0  0  0  0  0  0  0
    3.7622   -2.5120    0.2722 N   0  0  0  0  0  0  0  0  0  0  0  0
    2.4722   -2.2886   -0.1535 C   0  0  0  0  0  0  0  0  0  0  0  0
    1.2901   -3.0243    0.0373 C   0  0  0  0  0  0  0  0  0  0  0  0
    0.1121   -2.5116   -0.5332 C   0  0  0  0  0  0  0  0  0  0  0  0
    0.1752   -1.3796   -1.3700 C   0  0  0  0  0  0  0  0  0  0  0  0
    1.3445   -0.6476   -1.5167 C   0  0  0  0  0  0  0  0  0  0  0  0
    2.4912   -1.0743   -0.8356 C   0  0  0  0  0  0  0  0  0  0  0  0
   -1.2306   -2.9269   -0.1103 C   0  0  0  0  0  0  0  0  0  0  0  0
   -2.2081   -3.2654   -1.0350 C   0  0  0  0  0  0  0  0  0  0  0  0
   -3.5015   -2.8051   -0.8079 C   0  0  0  0  0  0  0  0  0  0  0  0
   -3.7396   -2.0267    0.3179 C   0  0  0  0  0  0  0  0  0  0  0  0
   -2.8238   -1.9535    1.3034 N   0  0  0  0  0  0  0  0  0  0  0  0
   -1.5647   -2.4192    1.0983 N   0  0  0  0  0  0  0  0  0  0  0  0
   -4.7742   -1.0875    0.2756 N   0  0  0  0  0  0  0  0  0  0  0  0
   -6.1009   -1.6001    0.6121 C   0  0  0  0  0  0  0  0  0  0  0  0
   -6.5801   -1.0176    1.9201 C   0  0  0  0  0  0  0  0  0  0  0  0
   -6.8200    0.7309    1.7142 S   0  0  0  0  0  0  0  0  0  0  0  0
   -8.1235    0.9204    1.1030 O   0  0  0  0  0  0  0  0  0  0  0  0
   -6.5015    1.3704    2.9765 O   0  0  0  0  0  0  0  0  0  0  0  0
   -5.5949    1.2187    0.5174 C   0  0  0  0  0  0  0  0  0  0  0  0
   -4.3748    0.3129    0.6262 C   0  0  0  0  0  0  0  0  0  0  0  0
   -3.2253    0.7982   -0.3185 C   0  0  0  0  0  0  0  0  0  0  0  0
   -2.6122    2.4958   -0.0161 S   0  0  0  0  0  0  0  0  0  0  0  0
   -1.0672    2.4610   -1.0018 C   0  0  0  0  0  0  0  0  0  0  0  0
    0.1109    2.3656   -0.0748 C   0  0  0  0  0  0  0  0  0  0  0  0
    0.5093    3.5830    0.7127 C   0  0  0  0  0  0  0  0  0  0  0  0
    1.4446    3.0677   -0.3618 C   0  0  0  0  0  0  0  0  0  0  0  0
    2.7903    2.4745    0.0572 C   0  0  2  0  0  0  0  0  0  0  0  0
    3.6879    3.5369    0.7736 C   0  0  0  0  0  0  0  0  0  0  0  0
    3.0432    4.1537    1.7913 F   0  0  0  0  0  0  0  0  0  0  0  0
    4.0858    4.4995   -0.0957 F   0  0  0  0  0  0  0  0  0  0  0  0
    4.8021    2.9844    1.3072 F   0  0  0  0  0  0  0  0  0  0  0  0
    3.4594    1.9199   -1.1597 N   0  0  0  0  0  0  0  0  0  0  0  0
    8.6090   -2.7035    1.5792 H   0  0  0  0  0  0  0  0  0  0  0  0
    8.5397   -1.0882    0.9755 H   0  0  0  0  0  0  0  0  0  0  0  0
    7.4122    0.3473   -0.0763 H   0  0  0  0  0  0  0  0  0  0  0  0
    4.0921   -3.3356    0.7637 H   0  0  0  0  0  0  0  0  0  0  0  0
    1.2706   -3.8981    0.6817 H   0  0  0  0  0  0  0  0  0  0  0  0
   -0.7299   -0.9820   -1.8258 H   0  0  0  0  0  0  0  0  0  0  0  0
    1.3518    0.2743   -2.0909 H   0  0  0  0  0  0  0  0  0  0  0  0
   -1.9405   -3.6735   -2.0046 H   0  0  0  0  0  0  0  0  0  0  0  0
   -4.2455   -2.8780   -1.5943 H   0  0  0  0  0  0  0  0  0  0  0  0
   -6.1020   -2.6954    0.6834 H   0  0  0  0  0  0  0  0  0  0  0  0
   -6.7905   -1.3448   -0.2017 H   0  0  0  0  0  0  0  0  0  0  0  0
   -7.5381   -1.4481    2.2250 H   0  0  0  0  0  0  0  0  0  0  0  0
   -5.8510   -1.1688    2.7225 H   0  0  0  0  0  0  0  0  0  0  0  0
   -5.3720    2.2691    0.7222 H   0  0  0  0  0  0  0  0  0  0  0  0
   -6.0550    1.1468   -0.4743 H   0  0  0  0  0  0  0  0  0  0  0  0
   -4.0094    0.3328    1.6625 H   0  0  0  0  0  0  0  0  0  0  0  0
   -3.5578    0.7395   -1.3614 H   0  0  0  0  0  0  0  0  0  0  0  0
   -2.3570    0.1443   -0.2149 H   0  0  0  0  0  0  0  0  0  0  0  0
   -1.0267    3.3863   -1.5861 H   0  0  0  0  0  0  0  0  0  0  0  0
   -1.0752    1.6266   -1.7085 H   0  0  0  0  0  0  0  0  0  0  0  0
    0.1457    1.4066    0.4339 H   0  0  0  0  0  0  0  0  0  0  0  0
    0.7387    3.4273    1.7621 H   0  0  0  0  0  0  0  0  0  0  0  0
   -0.0046    4.5213    0.5264 H   0  0  0  0  0  0  0  0  0  0  0  0
    1.5298    3.6746   -1.2573 H   0  0  0  0  0  0  0  0  0  0  0  0
    2.5886    1.6759    0.7837 H   0  0  0  0  0  0  0  0  0  0  0  0
    4.0187    2.6210   -1.6442 H   0  0  0  0  0  0  0  0  0  0  0  0
  1  2  1  0
  2  3  2  0
  2  4  1  0
  4  5  1  0
  5  6  2  0
  6  7  1  0
  7  8  2  0
  8  9  1  0
  9 10  1  0
 10 11  1  0
 11 12  1  0
 12 13  2  0
 13 14  1  0
 14 15  2  0
 15 16  1  0
 13 17  1  0
 17 18  2  0
 18 19  1  0
 19 20  2  0
 20 21  1  0
 21 22  2  0
 20 23  1  0
 23 24  1  0
 24 25  1  0
 25 26  1  0
 26 27  2  0
 26 28  2  0
 26 29  1  0
 29 30  1  0
 30 31  1  0
 31 32  1  0
 32 33  1  0
 33 34  1  0
 34 35  1  0
 35 36  1  0
 36 37  1  0
 37 38  1  0
 38 39  1  0
 38 40  1  0
 38 41  1  0
 37 42  1  0
  9  4  2  0
 16 11  2  0
 22 17  1  0
 30 23  1  0
 36 34  1  0
 42  7  1  0
 16  8  1  0
  1 43  1  0
  1 44  1  0
  5 45  1  0
 10 46  1  0
 12 47  1  0
 14 48  1  0
 15 49  1  0
 18 50  1  0
 19 51  1  0
 24 52  1  0
 24 53  1  0
 25 54  1  0
 25 55  1  0
 29 56  1  0
 29 57  1  0
 30 58  1  0
 31 59  1  0
 31 60  1  0
 33 61  1  0
 33 62  1  0
 34 63  1  0
 35 64  1  0
 35 65  1  0
 36 66  1  0
 37 67  1  1
 42 68  1  0
M  END
>  <candidate_id>  (68) 
CAND_8f245c542f

>  <source_generator>  (68) 
v5_3_model_guided_macrocycle

>  <parent_mol_id>  (68) 
JAK2_b8536fbab5

>  <canonical_smiles>  (68) 
NC(=O)c1cnc2c3c1[nH]c1cc(ccc13)-c1ccc(nn1)N1CCS(=O)(=O)CC1CSCC1CC1[C@H](C(F)(F)F)N2

>  <inchikey>  (68) 
HPTYTTFDUUTCKH-VUVLQECESA-N

>  <valid_rdkit>  (68) 
True

>  <unique_flag>  (68) 
True

>  <novel_flag>  (68) 
True

>  <mw>  (68) 
617.679

>  <logp>  (68) 
3.6011

>  <tpsa>  (68) 
146.96

>  <hbd>  (68) 
3

>  <hba>  (68) 
9

>  <rotatable_bonds>  (68) 
1

>  <qed>  (68) 
0.2916

>  <sa_score>  (68) 
6.012

>  <murcko_scaffold>  (68) 
O=S1(=O)CCN2c3ccc(nn3)-c3ccc4c(c3)[nH]c3ccnc(c34)NCC3CC3CSCC2C1

>  <max_ring_size>  (68) 
19

>  <has_macrocycle_12_20>  (68) 
True

>  <has_constrained_ring_8_11>  (68) 
False

>  <passes_basic_filters>  (68) 
True

>  <generation_notes>  (68) 
v5_3_model_guided_anchor_pair=10-27;anchor_scores=0.079,0.079;linker_length=3;target_ring=18;linker_prob=0.649;chemotype=thioether

$$$$
CAND_f0bd1b6255
     RDKit          3D

 68 74  0  0  0  0  0  0  0  0999 V2000
    8.0887    1.5257   -0.4845 N   0  0  0  0  0  0  0  0  0  0  0  0
    6.7992    1.8421   -0.1668 C   0  0  0  0  0  0  0  0  0  0  0  0
    6.4235    3.0106   -0.1796 O   0  0  0  0  0  0  0  0  0  0  0  0
    5.8668    0.7582    0.2028 C   0  0  0  0  0  0  0  0  0  0  0  0
    6.1257   -0.6042    0.0835 C   0  0  0  0  0  0  0  0  0  0  0  0
    5.2343   -1.6056    0.3272 N   0  0  0  0  0  0  0  0  0  0  0  0
    3.9878   -1.2899    0.7454 C   0  0  0  0  0  0  0  0  0  0  0  0
    3.7015    0.0506    1.0696 C   0  0  0  0  0  0  0  0  0  0  0  0
    4.5930    1.0513    0.6975 C   0  0  0  0  0  0  0  0  0  0  0  0
    3.9309    2.2541    0.8631 N   0  0  0  0  0  0  0  0  0  0  0  0
    2.6477    2.0369    1.3136 C   0  0  0  0  0  0  0  0  0  0  0  0
    1.5201    2.8701    1.3734 C   0  0  0  0  0  0  0  0  0  0  0  0
    0.3186    2.2836    1.8237 C   0  0  0  0  0  0  0  0  0  0  0  0
    0.3666    1.0404    2.4860 C   0  0  0  0  0  0  0  0  0  0  0  0
    1.4791    0.2165    2.3806 C   0  0  0  0  0  0  0  0  0  0  0  0
    2.5861    0.6932    1.6697 C   0  0  0  0  0  0  0  0  0  0  0  0
   -1.0106    2.7055    1.3251 C   0  0  0  0  0  0  0  0  0  0  0  0
   -1.1874    2.9013   -0.0426 C   0  0  0  0  0  0  0  0  0  0  0  0
   -2.3693    2.4583   -0.6279 C   0  0  0  0  0  0  0  0  0  0  0  0
   -3.3259    1.8642    0.1749 C   0  0  0  0  0  0  0  0  0  0  0  0
   -3.2165    1.9155    1.5186 N   0  0  0  0  0  0  0  0  0  0  0  0
   -2.0604    2.3494    2.1005 N   0  0  0  0  0  0  0  0  0  0  0  0
   -4.3321    1.0761   -0.4141 N   0  0  0  0  0  0  0  0  0  0  0  0
   -5.6687    1.6518   -0.2056 C   0  0  0  0  0  0  0  0  0  0  0  0
   -6.3281    1.1238    1.0496 C   0  0  0  0  0  0  0  0  0  0  0  0
   -6.6143   -0.6192    0.8663 S   0  0  0  0  0  0  0  0  0  0  0  0
   -6.2839   -1.2730    2.1183 O   0  0  0  0  0  0  0  0  0  0  0  0
   -7.9270   -0.7918    0.2708 O   0  0  0  0  0  0  0  0  0  0  0  0
   -5.4261   -1.1420   -0.3407 C   0  0  0  0  0  0  0  0  0  0  0  0
   -4.1160   -0.3841   -0.1585 C   0  0  0  0  0  0  0  0  0  0  0  0
   -3.0872   -1.0206   -1.1438 C   0  0  0  0  0  0  0  0  0  0  0  0
   -1.7365   -0.5633   -1.0645 O   0  0  0  0  0  0  0  0  0  0  0  0
   -0.9726   -1.0077    0.0601 C   0  0  0  0  0  0  0  0  0  0  0  0
   -0.5612   -2.4500   -0.0443 C   0  0  0  0  0  0  0  0  0  0  0  0
   -0.2146   -3.0385   -1.3837 C   0  0  0  0  0  0  0  0  0  0  0  0
    0.8667   -2.9681   -0.3261 C   0  0  0  0  0  0  0  0  0  0  0  0
    2.1145   -2.1122   -0.5502 C   0  0  2  0  0  0  0  0  0  0  0  0
    2.8500   -2.5103   -1.8782 C   0  0  0  0  0  0  0  0  0  0  0  0
    3.3781   -3.7562   -1.7901 F   0  0  0  0  0  0  0  0  0  0  0  0
    2.0200   -2.5020   -2.9484 F   0  0  0  0  0  0  0  0  0  0  0  0
    3.8558   -1.6559   -2.1808 F   0  0  0  0  0  0  0  0  0  0  0  0
    3.0045   -2.2813    0.6496 N   0  0  0  0  0  0  0  0  0  0  0  0
    8.4926    0.6019   -0.4647 H   0  0  0  0  0  0  0  0  0  0  0  0
    8.6998    2.2950   -0.7312 H   0  0  0  0  0  0  0  0  0  0  0  0
    7.0812   -0.9707   -0.2777 H   0  0  0  0  0  0  0  0  0  0  0  0
    4.3219    3.1459    0.5794 H   0  0  0  0  0  0  0  0  0  0  0  0
    1.5391    3.8604    0.9290 H   0  0  0  0  0  0  0  0  0  0  0  0
   -0.5375    0.6071    2.9145 H   0  0  0  0  0  0  0  0  0  0  0  0
    1.4376   -0.8126    2.7270 H   0  0  0  0  0  0  0  0  0  0  0  0
   -0.3574    3.1702   -0.6882 H   0  0  0  0  0  0  0  0  0  0  0  0
   -2.4674    2.4306   -1.7078 H   0  0  0  0  0  0  0  0  0  0  0  0
   -5.6213    2.7483   -0.1690 H   0  0  0  0  0  0  0  0  0  0  0  0
   -6.2841    1.4149   -1.0827 H   0  0  0  0  0  0  0  0  0  0  0  0
   -7.2985    1.6006    1.2159 H   0  0  0  0  0  0  0  0  0  0  0  0
   -5.7117    1.2700    1.9400 H   0  0  0  0  0  0  0  0  0  0  0  0
   -5.2965   -2.2212   -0.2070 H   0  0  0  0  0  0  0  0  0  0  0  0
   -5.8583   -0.9682   -1.3324 H   0  0  0  0  0  0  0  0  0  0  0  0
   -3.7685   -0.5341    0.8716 H   0  0  0  0  0  0  0  0  0  0  0  0
   -3.0917   -2.1121   -1.0392 H   0  0  0  0  0  0  0  0  0  0  0  0
   -3.4135   -0.8065   -2.1689 H   0  0  0  0  0  0  0  0  0  0  0  0
   -0.0886   -0.3720    0.0806 H   0  0  0  0  0  0  0  0  0  0  0  0
   -1.5241   -0.8309    0.9881 H   0  0  0  0  0  0  0  0  0  0  0  0
   -1.1722   -3.0619    0.6135 H   0  0  0  0  0  0  0  0  0  0  0  0
   -0.6205   -4.0146   -1.6296 H   0  0  0  0  0  0  0  0  0  0  0  0
   -0.1880   -2.3637   -2.2335 H   0  0  0  0  0  0  0  0  0  0  0  0
    1.1342   -3.9219    0.1238 H   0  0  0  0  0  0  0  0  0  0  0  0
    1.8097   -1.0661   -0.6531 H   0  0  0  0  0  0  0  0  0  0  0  0
    3.4626   -3.1912    0.6679 H   0  0  0  0  0  0  0  0  0  0  0  0
  1  2  1  0
  2  3  2  0
  2  4  1  0
  4  5  1  0
  5  6  2  0
  6  7  1  0
  7  8  2  0
  8  9  1  0
  9 10  1  0
 10 11  1  0
 11 12  1  0
 12 13  2  0
 13 14  1  0
 14 15  2  0
 15 16  1  0
 13 17  1  0
 17 18  2  0
 18 19  1  0
 19 20  2  0
 20 21  1  0
 21 22  2  0
 20 23  1  0
 23 24  1  0
 24 25  1  0
 25 26  1  0
 26 27  2  0
 26 28  2  0
 26 29  1  0
 29 30  1  0
 30 31  1  0
 31 32  1  0
 32 33  1  0
 33 34  1  0
 34 35  1  0
 35 36  1  0
 36 37  1  0
 37 38  1  0
 38 39  1  0
 38 40  1  0
 38 41  1  0
 37 42  1  0
  9  4  2  0
 16 11  2  0
 22 17  1  0
 30 23  1  0
 36 34  1  0
 42  7  1  0
 16  8  1  0
  1 43  1  0
  1 44  1  0
  5 45  1  0
 10 46  1  0
 12 47  1  0
 14 48  1  0
 15 49  1  0
 18 50  1  0
 19 51  1  0
 24 52  1  0
 24 53  1  0
 25 54  1  0
 25 55  1  0
 29 56  1  0
 29 57  1  0
 30 58  1  0
 31 59  1  0
 31 60  1  0
 33 61  1  0
 33 62  1  0
 34 63  1  0
 35 64  1  0
 35 65  1  0
 36 66  1  0
 37 67  1  6
 42 68  1  0
M  END
>  <candidate_id>  (69) 
CAND_f0bd1b6255

>  <source_generator>  (69) 
v5_3_model_guided_macrocycle

>  <parent_mol_id>  (69) 
JAK2_b8536fbab5

>  <canonical_smiles>  (69) 
NC(=O)c1cnc2c3c1[nH]c1cc(ccc13)-c1ccc(nn1)N1CCS(=O)(=O)CC1COCC1CC1[C@H](C(F)(F)F)N2

>  <inchikey>  (69) 
HZSOISHLLRBLLV-VUVLQECESA-N

>  <valid_rdkit>  (69) 
True

>  <unique_flag>  (69) 
True

>  <novel_flag>  (69) 
True

>  <mw>  (69) 
601.611

>  <logp>  (69) 
2.8845

>  <tpsa>  (69) 
156.19

>  <hbd>  (69) 
3

>  <hba>  (69) 
9

>  <rotatable_bonds>  (69) 
1

>  <qed>  (69) 
0.2986

>  <sa_score>  (69) 
5.923

>  <murcko_scaffold>  (69) 
O=S1(=O)CCN2c3ccc(nn3)-c3ccc4c(c3)[nH]c3ccnc(c34)NCC3CC3COCC2C1

>  <max_ring_size>  (69) 
19

>  <has_macrocycle_12_20>  (69) 
True

>  <has_constrained_ring_8_11>  (69) 
False

>  <passes_basic_filters>  (69) 
True

>  <generation_notes>  (69) 
v5_3_model_guided_anchor_pair=10-27;anchor_scores=0.079,0.079;linker_length=3;target_ring=18;linker_prob=0.649;chemotype=oxa

$$$$
CAND_5682a4f941
     RDKit          3D

 69 75  0  0  0  0  0  0  0  0999 V2000
    8.2302    1.3221   -0.8758 N   0  0  0  0  0  0  0  0  0  0  0  0
    6.9048    1.6444   -0.8190 C   0  0  0  0  0  0  0  0  0  0  0  0
    6.4924    2.6810   -1.3307 O   0  0  0  0  0  0  0  0  0  0  0  0
    5.9777    0.7328   -0.1189 C   0  0  0  0  0  0  0  0  0  0  0  0
    6.2879   -0.5528    0.3133 C   0  0  0  0  0  0  0  0  0  0  0  0
    5.4175   -1.4266    0.8906 N   0  0  0  0  0  0  0  0  0  0  0  0
    4.1381   -1.0441    1.1000 C   0  0  0  0  0  0  0  0  0  0  0  0
    3.7704    0.2860    0.8149 C   0  0  0  0  0  0  0  0  0  0  0  0
    4.6601    1.1185    0.1434 C   0  0  0  0  0  0  0  0  0  0  0  0
    3.9620    2.2628   -0.1939 N   0  0  0  0  0  0  0  0  0  0  0  0
    2.6606    2.1867    0.2490 C   0  0  0  0  0  0  0  0  0  0  0  0
    1.5402    2.9949   -0.0041 C   0  0  0  0  0  0  0  0  0  0  0  0
    0.3213    2.6140    0.5909 C   0  0  0  0  0  0  0  0  0  0  0  0
    0.3155    1.5949    1.5625 C   0  0  0  0  0  0  0  0  0  0  0  0
    1.4234    0.7864    1.7736 C   0  0  0  0  0  0  0  0  0  0  0  0
    2.5826    1.0368    1.0302 C   0  0  0  0  0  0  0  0  0  0  0  0
   -0.9948    3.0137    0.0621 C   0  0  0  0  0  0  0  0  0  0  0  0
   -1.2918    2.7494   -1.2695 C   0  0  0  0  0  0  0  0  0  0  0  0
   -2.5766    2.3168   -1.5805 C   0  0  0  0  0  0  0  0  0  0  0  0
   -3.5153    2.1997   -0.5672 C   0  0  0  0  0  0  0  0  0  0  0  0
   -3.2507    2.7095    0.6532 N   0  0  0  0  0  0  0  0  0  0  0  0
   -1.9854    3.1119    0.9763 N   0  0  0  0  0  0  0  0  0  0  0  0
   -4.6532    1.4217   -0.7403 N   0  0  0  0  0  0  0  0  0  0  0  0
   -5.8659    1.9038   -0.0710 C   0  0  0  0  0  0  0  0  0  0  0  0
   -6.2583    1.0074    1.0758 C   0  0  0  0  0  0  0  0  0  0  0  0
   -6.7119   -0.5839    0.4281 S   0  0  0  0  0  0  0  0  0  0  0  0
   -6.2084   -1.5965    1.3370 O   0  0  0  0  0  0  0  0  0  0  0  0
   -8.1239   -0.5376    0.0943 O   0  0  0  0  0  0  0  0  0  0  0  0
   -5.8153   -0.7225   -1.1022 C   0  0  0  0  0  0  0  0  0  0  0  0
   -4.4579   -0.0318   -1.0174 C   0  0  0  0  0  0  0  0  0  0  0  0
   -3.5150   -0.7786    0.0071 C   0  0  0  0  0  0  0  0  0  0  0  0
   -2.0979   -0.8133   -0.4072 N   0  0  0  0  0  0  0  0  0  0  0  0
   -1.2665   -1.5659    0.5439 C   0  0  0  0  0  0  0  0  0  0  0  0
    0.0727   -1.7978   -0.1109 C   0  0  0  0  0  0  0  0  0  0  0  0
    0.2698   -3.1001   -0.8345 C   0  0  0  0  0  0  0  0  0  0  0  0
    1.0961   -2.8139    0.4044 C   0  0  0  0  0  0  0  0  0  0  0  0
    2.6045   -2.6497    0.2115 C   0  0  2  0  0  0  0  0  0  0  0  0
    3.2739   -4.0191   -0.1301 C   0  0  0  0  0  0  0  0  0  0  0  0
    3.2229   -4.8627    0.9308 F   0  0  0  0  0  0  0  0  0  0  0  0
    2.6663   -4.6377   -1.1701 F   0  0  0  0  0  0  0  0  0  0  0  0
    4.5754   -3.8789   -0.4711 F   0  0  0  0  0  0  0  0  0  0  0  0
    3.2014   -2.0285    1.4328 N   0  0  0  0  0  0  0  0  0  0  0  0
    8.6622    0.5210   -0.4412 H   0  0  0  0  0  0  0  0  0  0  0  0
    8.8380    1.9720   -1.3601 H   0  0  0  0  0  0  0  0  0  0  0  0
    7.2774   -0.9759    0.1717 H   0  0  0  0  0  0  0  0  0  0  0  0
    4.3594    3.0112   -0.7514 H   0  0  0  0  0  0  0  0  0  0  0  0
    1.5922    3.8113   -0.7179 H   0  0  0  0  0  0  0  0  0  0  0  0
   -0.6107    1.3258    2.0709 H   0  0  0  0  0  0  0  0  0  0  0  0
    1.3585   -0.0753    2.4323 H   0  0  0  0  0  0  0  0  0  0  0  0
   -0.5088    2.6601   -2.0161 H   0  0  0  0  0  0  0  0  0  0  0  0
   -2.7970    1.9532   -2.5787 H   0  0  0  0  0  0  0  0  0  0  0  0
   -5.7524    2.9345    0.2885 H   0  0  0  0  0  0  0  0  0  0  0  0
   -6.6728    1.9464   -0.8138 H   0  0  0  0  0  0  0  0  0  0  0  0
   -7.1256    1.4027    1.6125 H   0  0  0  0  0  0  0  0  0  0  0  0
   -5.4387    0.8709    1.7865 H   0  0  0  0  0  0  0  0  0  0  0  0
   -5.7205   -1.7875   -1.3367 H   0  0  0  0  0  0  0  0  0  0  0  0
   -6.4326   -0.2609   -1.8812 H   0  0  0  0  0  0  0  0  0  0  0  0
   -4.0110   -0.1276   -2.0164 H   0  0  0  0  0  0  0  0  0  0  0  0
   -3.8443   -1.8215    0.0823 H   0  0  0  0  0  0  0  0  0  0  0  0
   -3.5943   -0.3273    1.0020 H   0  0  0  0  0  0  0  0  0  0  0  0
   -1.7399    0.1407   -0.4299 H   0  0  0  0  0  0  0  0  0  0  0  0
   -1.7337   -2.5255    0.7950 H   0  0  0  0  0  0  0  0  0  0  0  0
   -1.1421   -1.0043    1.4742 H   0  0  0  0  0  0  0  0  0  0  0  0
    0.4737   -0.8942   -0.5581 H   0  0  0  0  0  0  0  0  0  0  0  0
   -0.4983   -3.8637   -0.7630 H   0  0  0  0  0  0  0  0  0  0  0  0
    0.7280   -3.0506   -1.8169 H   0  0  0  0  0  0  0  0  0  0  0  0
    0.8560   -3.3695    1.3045 H   0  0  0  0  0  0  0  0  0  0  0  0
    2.7549   -1.9982   -0.6611 H   0  0  0  0  0  0  0  0  0  0  0  0
    3.6433   -2.7215    2.0353 H   0  0  0  0  0  0  0  0  0  0  0  0
  1  2  1  0
  2  3  2  0
  2  4  1  0
  4  5  1  0
  5  6  2  0
  6  7  1  0
  7  8  2  0
  8  9  1  0
  9 10  1  0
 10 11  1  0
 11 12  1  0
 12 13  2  0
 13 14  1  0
 14 15  2  0
 15 16  1  0
 13 17  1  0
 17 18  2  0
 18 19  1  0
 19 20  2  0
 20 21  1  0
 21 22  2  0
 20 23  1  0
 23 24  1  0
 24 25  1  0
 25 26  1  0
 26 27  2  0
 26 28  2  0
 26 29  1  0
 29 30  1  0
 30 31  1  0
 31 32  1  0
 32 33  1  0
 33 34  1  0
 34 35  1  0
 35 36  1  0
 36 37  1  0
 37 38  1  0
 38 39  1  0
 38 40  1  0
 38 41  1  0
 37 42  1  0
  9  4  2  0
 16 11  2  0
 22 17  1  0
 30 23  1  0
 36 34  1  0
 42  7  1  0
 16  8  1  0
  1 43  1  0
  1 44  1  0
  5 45  1  0
 10 46  1  0
 12 47  1  0
 14 48  1  0
 15 49  1  0
 18 50  1  0
 19 51  1  0
 24 52  1  0
 24 53  1  0
 25 54  1  0
 25 55  1  0
 29 56  1  0
 29 57  1  0
 30 58  1  0
 31 59  1  0
 31 60  1  0
 32 61  1  0
 33 62  1  0
 33 63  1  0
 34 64  1  0
 35 65  1  0
 35 66  1  0
 36 67  1  0
 37 68  1  6
 42 69  1  0
M  END
>  <candidate_id>  (70) 
CAND_5682a4f941

>  <source_generator>  (70) 
v5_3_model_guided_macrocycle

>  <parent_mol_id>  (70) 
JAK2_b8536fbab5

>  <canonical_smiles>  (70) 
NC(=O)c1cnc2c3c1[nH]c1cc(ccc13)-c1ccc(nn1)N1CCS(=O)(=O)CC1CNCC1CC1[C@H](C(F)(F)F)N2

>  <inchikey>  (70) 
INEZOYDVWQORFK-VUVLQECESA-N

>  <valid_rdkit>  (70) 
True

>  <unique_flag>  (70) 
True

>  <novel_flag>  (70) 
True

>  <mw>  (70) 
600.627

>  <logp>  (70) 
2.4575

>  <tpsa>  (70) 
158.99

>  <hbd>  (70) 
4

>  <hba>  (70) 
9

>  <rotatable_bonds>  (70) 
1

>  <qed>  (70) 
0.2575

>  <sa_score>  (70) 
5.917

>  <murcko_scaffold>  (70) 
O=S1(=O)CCN2c3ccc(nn3)-c3ccc4c(c3)[nH]c3ccnc(c34)NCC3CC3CNCC2C1

>  <max_ring_size>  (70) 
19

>  <has_macrocycle_12_20>  (70) 
True

>  <has_constrained_ring_8_11>  (70) 
False

>  <passes_basic_filters>  (70) 
True

>  <generation_notes>  (70) 
v5_3_model_guided_anchor_pair=10-27;anchor_scores=0.079,0.079;linker_length=3;target_ring=18;linker_prob=0.649;chemotype=aza

$$$$
CAND_454e8d3cd4
     RDKit          3D

 76 82  0  0  0  0  0  0  0  0999 V2000
   -5.6006   -0.9029    1.3545 C   0  0  0  0  0  0  0  0  0  0  0  0
   -5.5337   -1.5782    0.0612 N   0  0  0  0  0  0  0  0  0  0  0  0
   -5.1466   -2.9980    0.1992 C   0  0  0  0  0  0  0  0  0  0  0  0
   -3.6827   -3.2504    0.6196 C   0  0  0  0  0  0  0  0  0  0  0  0
   -2.7394   -2.5119   -0.2365 N   0  0  0  0  0  0  0  0  0  0  0  0
   -1.3997   -2.8134    0.0363 C   0  0  0  0  0  0  0  0  0  0  0  0
   -0.7386   -3.7720   -0.7392 C   0  0  0  0  0  0  0  0  0  0  0  0
    0.6516   -3.9292   -0.6569 C   0  0  0  0  0  0  0  0  0  0  0  0
    1.4081   -3.1282    0.2103 C   0  0  0  0  0  0  0  0  0  0  0  0
    0.7172   -2.2560    1.0699 C   0  0  0  0  0  0  0  0  0  0  0  0
   -0.6658   -2.1076    0.9918 C   0  0  0  0  0  0  0  0  0  0  0  0
    2.8703   -3.0542    0.1395 C   0  0  0  0  0  0  0  0  0  0  0  0
    3.7374   -4.1215    0.0059 C   0  0  0  0  0  0  0  0  0  0  0  0
    5.0815   -3.9642   -0.1173 N   0  0  0  0  0  0  0  0  0  0  0  0
    5.5462   -2.6950   -0.1251 C   0  0  0  0  0  0  0  0  0  0  0  0
    6.9056   -2.4533   -0.2738 C   0  0  0  0  0  0  0  0  0  0  0  0
    7.4160   -1.1541   -0.3071 C   0  0  0  0  0  0  0  0  0  0  0  0
    6.5525   -0.0688   -0.1914 C   0  0  0  0  0  0  0  0  0  0  0  0
    5.1755   -0.2790   -0.0330 C   0  0  0  0  0  0  0  0  0  0  0  0
    4.6735   -1.5912    0.0058 C   0  0  0  0  0  0  0  0  0  0  0  0
    3.3521   -1.7904    0.1516 N   0  0  0  0  0  0  0  0  0  0  0  0
    4.2491    0.8633    0.0759 C   0  0  0  0  0  0  0  0  0  0  0  0
    3.7037    1.2269    1.3153 C   0  0  0  0  0  0  0  0  0  0  0  0
    2.7398    2.2320    1.3983 C   0  0  0  0  0  0  0  0  0  0  0  0
    2.2548    2.5511    2.6076 F   0  0  0  0  0  0  0  0  0  0  0  0
    2.2879    2.9096    0.2652 C   0  0  0  0  0  0  0  0  0  0  0  0
    2.8480    2.5566   -0.9611 C   0  0  0  0  0  0  0  0  0  0  0  0
    2.4575    3.1869   -2.0788 F   0  0  0  0  0  0  0  0  0  0  0  0
    3.8153    1.5539   -1.0647 C   0  0  0  0  0  0  0  0  0  0  0  0
    1.2468    3.9889    0.3784 C   0  0  0  0  0  0  0  0  0  0  0  0
   -0.1137    3.4674    0.5998 N   0  0  0  0  0  0  0  0  0  0  0  0
   -0.9170    4.4596    1.3461 C   0  0  0  0  0  0  0  0  0  0  0  0
   -2.4197    4.1458    1.3077 C   0  0  0  0  0  0  0  0  0  0  0  0
   -2.9659    4.0876   -0.0167 O   0  0  0  0  0  0  0  0  0  0  0  0
   -1.9600    4.0020   -1.0306 C   0  0  0  0  0  0  0  0  0  0  0  0
   -0.7983    3.0482   -0.6571 C   0  0  0  0  0  0  0  0  0  0  0  0
   -1.2613    1.5803   -0.4704 C   0  0  0  0  0  0  0  0  0  0  0  0
   -2.0634    1.0272   -1.6600 C   0  0  0  0  0  0  0  0  0  0  0  0
   -2.1912   -0.5029   -1.6440 C   0  0  0  0  0  0  0  0  0  0  0  0
   -3.0615   -1.0753   -0.4914 C   0  0  0  0  0  0  0  0  0  0  0  0
   -4.5736   -0.9169   -0.8518 C   0  0  0  0  0  0  0  0  0  0  0  0
   -4.6477   -0.8915    1.8927 H   0  0  0  0  0  0  0  0  0  0  0  0
   -5.9285    0.1345    1.2245 H   0  0  0  0  0  0  0  0  0  0  0  0
   -6.3460   -1.3861    1.9961 H   0  0  0  0  0  0  0  0  0  0  0  0
   -5.3173   -3.4858   -0.7700 H   0  0  0  0  0  0  0  0  0  0  0  0
   -5.8208   -3.5013    0.9032 H   0  0  0  0  0  0  0  0  0  0  0  0
   -3.5456   -2.9578    1.6684 H   0  0  0  0  0  0  0  0  0  0  0  0
   -3.4876   -4.3282    0.5523 H   0  0  0  0  0  0  0  0  0  0  0  0
   -1.2987   -4.3353   -1.4817 H   0  0  0  0  0  0  0  0  0  0  0  0
    1.1361   -4.6127   -1.3499 H   0  0  0  0  0  0  0  0  0  0  0  0
    1.2710   -1.6194    1.7590 H   0  0  0  0  0  0  0  0  0  0  0  0
   -1.1483   -1.3765    1.6334 H   0  0  0  0  0  0  0  0  0  0  0  0
    3.3858   -5.1470   -0.0068 H   0  0  0  0  0  0  0  0  0  0  0  0
    7.5816   -3.2996   -0.3719 H   0  0  0  0  0  0  0  0  0  0  0  0
    8.4847   -0.9933   -0.4276 H   0  0  0  0  0  0  0  0  0  0  0  0
    6.9535    0.9424   -0.2223 H   0  0  0  0  0  0  0  0  0  0  0  0
    3.9974    0.7089    2.2244 H   0  0  0  0  0  0  0  0  0  0  0  0
    4.1956    1.2942   -2.0491 H   0  0  0  0  0  0  0  0  0  0  0  0
    1.5521    4.6151    1.2294 H   0  0  0  0  0  0  0  0  0  0  0  0
    1.2759    4.6625   -0.4885 H   0  0  0  0  0  0  0  0  0  0  0  0
   -0.7622    5.4636    0.9284 H   0  0  0  0  0  0  0  0  0  0  0  0
   -0.5835    4.4820    2.3900 H   0  0  0  0  0  0  0  0  0  0  0  0
   -2.6288    3.1908    1.8021 H   0  0  0  0  0  0  0  0  0  0  0  0
   -2.9745    4.9149    1.8553 H   0  0  0  0  0  0  0  0  0  0  0  0
   -2.4491    3.6885   -1.9580 H   0  0  0  0  0  0  0  0  0  0  0  0
   -1.5776    5.0127   -1.2221 H   0  0  0  0  0  0  0  0  0  0  0  0
   -0.0949    3.0572   -1.4992 H   0  0  0  0  0  0  0  0  0  0  0  0
   -1.8636    1.4828    0.4392 H   0  0  0  0  0  0  0  0  0  0  0  0
   -0.3701    0.9568   -0.3190 H   0  0  0  0  0  0  0  0  0  0  0  0
   -1.5562    1.3096   -2.5910 H   0  0  0  0  0  0  0  0  0  0  0  0
   -3.0594    1.4808   -1.6896 H   0  0  0  0  0  0  0  0  0  0  0  0
   -2.6063   -0.8315   -2.6057 H   0  0  0  0  0  0  0  0  0  0  0  0
   -1.1727   -0.9047   -1.6228 H   0  0  0  0  0  0  0  0  0  0  0  0
   -2.8780   -0.5121    0.4298 H   0  0  0  0  0  0  0  0  0  0  0  0
   -4.8284    0.1469   -0.9326 H   0  0  0  0  0  0  0  0  0  0  0  0
   -4.7454   -1.3344   -1.8534 H   0  0  0  0  0  0  0  0  0  0  0  0
  1  2  1  0
  2  3  1  0
  3  4  1  0
  4  5  1  0
  5  6  1  0
  6  7  2  0
  7  8  1  0
  8  9  2  0
  9 10  1  0
 10 11  2  0
  9 12  1  0
 12 13  2  0
 13 14  1  0
 14 15  2  0
 15 16  1  0
 16 17  2  0
 17 18  1  0
 18 19  2  0
 19 20  1  0
 20 21  2  0
 19 22  1  0
 22 23  2  0
 23 24  1  0
 24 25  1  0
 24 26  2  0
 26 27  1  0
 27 28  1  0
 27 29  2  0
 26 30  1  0
 30 31  1  0
 31 32  1  0
 32 33  1  0
 33 34  1  0
 34 35  1  0
 35 36  1  0
 36 37  1  0
 37 38  1  0
 38 39  1  0
 39 40  1  0
 40 41  1  0
 41  2  1  0
 40  5  1  0
 11  6  1  0
 21 12  1  0
 29 22  1  0
 36 31  1  0
 20 15  1  0
  1 42  1  0
  1 43  1  0
  1 44  1  0
  3 45  1  0
  3 46  1  0
  4 47  1  0
  4 48  1  0
  7 49  1  0
  8 50  1  0
 10 51  1  0
 11 52  1  0
 13 53  1  0
 16 54  1  0
 17 55  1  0
 18 56  1  0
 23 57  1  0
 29 58  1  0
 30 59  1  0
 30 60  1  0
 32 61  1  0
 32 62  1  0
 33 63  1  0
 33 64  1  0
 35 65  1  0
 35 66  1  0
 36 67  1  0
 37 68  1  0
 37 69  1  0
 38 70  1  0
 38 71  1  0
 39 72  1  0
 39 73  1  0
 40 74  1  0
 41 75  1  0
 41 76  1  0
M  END
>  <candidate_id>  (71) 
CAND_454e8d3cd4

>  <source_generator>  (71) 
v5_3_model_guided_macrocycle

>  <parent_mol_id>  (71) 
JAK2_4424830aa8

>  <canonical_smiles>  (71) 
CN1CCN2c3ccc(cc3)-c3cnc4cccc(c4n3)-c3cc(F)c(c(F)c3)CN3CCOCC3CCCC2C1

>  <inchikey>  (71) 
QBAFJGWJFQFIOJ-UHFFFAOYSA-N

>  <valid_rdkit>  (71) 
True

>  <unique_flag>  (71) 
True

>  <novel_flag>  (71) 
True

>  <mw>  (71) 
555.673

>  <logp>  (71) 
5.7471

>  <tpsa>  (71) 
44.73

>  <hbd>  (71) 
0

>  <hba>  (71) 
6

>  <rotatable_bonds>  (71) 
0

>  <qed>  (71) 
0.2756

>  <sa_score>  (71) 
5.416

>  <murcko_scaffold>  (71) 
c1cc2c3nc(cnc3c1)-c1ccc(cc1)N1CCNCC1CCCC1COCCN1Cc1ccc-2cc1

>  <max_ring_size>  (71) 
20

>  <has_macrocycle_12_20>  (71) 
True

>  <has_constrained_ring_8_11>  (71) 
False

>  <passes_basic_filters>  (71) 
True

>  <generation_notes>  (71) 
v5_3_model_guided_anchor_pair=3-24;anchor_scores=0.079,0.079;linker_length=3;target_ring=19;linker_prob=0.610;chemotype=oxa_aza

$$$$
CAND_9c6324c16c
     RDKit          3D

 74 80  0  0  0  0  0  0  0  0999 V2000
   -6.7716   -1.2802   -0.1111 C   0  0  0  0  0  0  0  0  0  0  0  0
   -5.7699   -1.6030   -1.1245 N   0  0  0  0  0  0  0  0  0  0  0  0
   -5.2082   -2.9494   -0.8856 C   0  0  0  0  0  0  0  0  0  0  0  0
   -3.7681   -3.1345   -1.4107 C   0  0  0  0  0  0  0  0  0  0  0  0
   -2.8593   -2.2004   -0.7286 N   0  0  0  0  0  0  0  0  0  0  0  0
   -1.5774   -2.5988   -0.3994 C   0  0  0  0  0  0  0  0  0  0  0  0
   -0.9541   -2.1574    0.7699 C   0  0  0  0  0  0  0  0  0  0  0  0
    0.3983   -2.4053    1.0138 C   0  0  0  0  0  0  0  0  0  0  0  0
    1.1805   -3.1319    0.1046 C   0  0  0  0  0  0  0  0  0  0  0  0
    0.5395   -3.6755   -1.0130 C   0  0  0  0  0  0  0  0  0  0  0  0
   -0.8173   -3.4100   -1.2558 C   0  0  0  0  0  0  0  0  0  0  0  0
    2.6342   -3.1666    0.2682 C   0  0  0  0  0  0  0  0  0  0  0  0
    3.4427   -4.2805    0.1507 C   0  0  0  0  0  0  0  0  0  0  0  0
    4.7951   -4.2202    0.2691 N   0  0  0  0  0  0  0  0  0  0  0  0
    5.3320   -2.9991    0.4893 C   0  0  0  0  0  0  0  0  0  0  0  0
    6.7088   -2.8515    0.5964 C   0  0  0  0  0  0  0  0  0  0  0  0
    7.2952   -1.6003    0.7987 C   0  0  0  0  0  0  0  0  0  0  0  0
    6.4928   -0.4668    0.8932 C   0  0  0  0  0  0  0  0  0  0  0  0
    5.0993   -0.5826    0.7979 C   0  0  0  0  0  0  0  0  0  0  0  0
    4.5194   -1.8489    0.6037 C   0  0  0  0  0  0  0  0  0  0  0  0
    3.1822   -1.9550    0.5073 N   0  0  0  0  0  0  0  0  0  0  0  0
    4.2324    0.6093    0.8644 C   0  0  0  0  0  0  0  0  0  0  0  0
    4.1428    1.4971   -0.2160 C   0  0  0  0  0  0  0  0  0  0  0  0
    3.1953    2.5237   -0.2129 C   0  0  0  0  0  0  0  0  0  0  0  0
    3.1592    3.3539   -1.2656 F   0  0  0  0  0  0  0  0  0  0  0  0
    2.3064    2.6991    0.8493 C   0  0  0  0  0  0  0  0  0  0  0  0
    2.4473    1.8506    1.9469 C   0  0  0  0  0  0  0  0  0  0  0  0
    1.6518    2.0042    3.0156 F   0  0  0  0  0  0  0  0  0  0  0  0
    3.3862    0.8201    1.9626 C   0  0  0  0  0  0  0  0  0  0  0  0
    1.2784    3.7983    0.8501 C   0  0  0  0  0  0  0  0  0  0  0  0
    0.3574    3.7786   -0.3018 N   0  0  0  0  0  0  0  0  0  0  0  0
   -0.0053    5.1753   -0.6545 C   0  0  0  0  0  0  0  0  0  0  0  0
   -1.3532    5.2867   -1.3736 C   0  0  0  0  0  0  0  0  0  0  0  0
   -2.4354    4.8536   -0.5409 O   0  0  0  0  0  0  0  0  0  0  0  0
   -2.0796    3.7669    0.3329 C   0  0  0  0  0  0  0  0  0  0  0  0
   -0.8743    2.9363   -0.1783 C   0  0  0  0  0  0  0  0  0  0  0  0
   -0.7583    1.6008    0.5928 C   0  0  0  0  0  0  0  0  0  0  0  0
   -1.9807    0.8503    0.6529 O   0  0  0  0  0  0  0  0  0  0  0  0
   -2.4092    0.3069   -0.6089 C   0  0  0  0  0  0  0  0  0  0  0  0
   -3.4138   -0.8606   -0.3562 C   0  0  0  0  0  0  0  0  0  0  0  0
   -4.7050   -0.5778   -1.1879 C   0  0  0  0  0  0  0  0  0  0  0  0
   -7.2626   -0.3295   -0.3464 H   0  0  0  0  0  0  0  0  0  0  0  0
   -6.3375   -1.2043    0.8923 H   0  0  0  0  0  0  0  0  0  0  0  0
   -7.5585   -2.0424   -0.0918 H   0  0  0  0  0  0  0  0  0  0  0  0
   -5.1968   -3.1746    0.1901 H   0  0  0  0  0  0  0  0  0  0  0  0
   -5.8629   -3.6883   -1.3618 H   0  0  0  0  0  0  0  0  0  0  0  0
   -3.4795   -4.1757   -1.2201 H   0  0  0  0  0  0  0  0  0  0  0  0
   -3.7270   -2.9690   -2.4940 H   0  0  0  0  0  0  0  0  0  0  0  0
   -1.5039   -1.5656    1.4972 H   0  0  0  0  0  0  0  0  0  0  0  0
    0.8569   -1.9669    1.8988 H   0  0  0  0  0  0  0  0  0  0  0  0
    1.1008   -4.2341   -1.7584 H   0  0  0  0  0  0  0  0  0  0  0  0
   -1.2510   -3.7796   -2.1816 H   0  0  0  0  0  0  0  0  0  0  0  0
    3.0341   -5.2664   -0.0402 H   0  0  0  0  0  0  0  0  0  0  0  0
    7.3393   -3.7339    0.5130 H   0  0  0  0  0  0  0  0  0  0  0  0
    8.3765   -1.5133    0.8749 H   0  0  0  0  0  0  0  0  0  0  0  0
    6.9543    0.5072    1.0425 H   0  0  0  0  0  0  0  0  0  0  0  0
    4.7740    1.3748   -1.0922 H   0  0  0  0  0  0  0  0  0  0  0  0
    3.4149    0.1527    2.8203 H   0  0  0  0  0  0  0  0  0  0  0  0
    1.8696    4.7261    0.8426 H   0  0  0  0  0  0  0  0  0  0  0  0
    0.7138    3.8305    1.7901 H   0  0  0  0  0  0  0  0  0  0  0  0
   -0.0741    5.7870    0.2557 H   0  0  0  0  0  0  0  0  0  0  0  0
    0.7859    5.5963   -1.2846 H   0  0  0  0  0  0  0  0  0  0  0  0
   -1.3632    4.7019   -2.3007 H   0  0  0  0  0  0  0  0  0  0  0  0
   -1.5487    6.3286   -1.6473 H   0  0  0  0  0  0  0  0  0  0  0  0
   -2.9790    3.1521    0.4338 H   0  0  0  0  0  0  0  0  0  0  0  0
   -1.8673    4.1867    1.3235 H   0  0  0  0  0  0  0  0  0  0  0  0
   -1.1178    2.6575   -1.2125 H   0  0  0  0  0  0  0  0  0  0  0  0
    0.0260    0.9666    0.1645 H   0  0  0  0  0  0  0  0  0  0  0  0
   -0.4953    1.7983    1.6357 H   0  0  0  0  0  0  0  0  0  0  0  0
   -1.5454   -0.0197   -1.1985 H   0  0  0  0  0  0  0  0  0  0  0  0
   -2.8935    1.1221   -1.1570 H   0  0  0  0  0  0  0  0  0  0  0  0
   -3.6915   -0.8910    0.7056 H   0  0  0  0  0  0  0  0  0  0  0  0
   -4.4172   -0.4983   -2.2457 H   0  0  0  0  0  0  0  0  0  0  0  0
   -5.1101    0.4084   -0.9249 H   0  0  0  0  0  0  0  0  0  0  0  0
  1  2  1  0
  2  3  1  0
  3  4  1  0
  4  5  1  0
  5  6  1  0
  6  7  2  0
  7  8  1  0
  8  9  2  0
  9 10  1  0
 10 11  2  0
  9 12  1  0
 12 13  2  0
 13 14  1  0
 14 15  2  0
 15 16  1  0
 16 17  2  0
 17 18  1  0
 18 19  2  0
 19 20  1  0
 20 21  2  0
 19 22  1  0
 22 23  2  0
 23 24  1  0
 24 25  1  0
 24 26  2  0
 26 27  1  0
 27 28  1  0
 27 29  2  0
 26 30  1  0
 30 31  1  0
 31 32  1  0
 32 33  1  0
 33 34  1  0
 34 35  1  0
 35 36  1  0
 36 37  1  0
 37 38  1  0
 38 39  1  0
 39 40  1  0
 40 41  1  0
 41  2  1  0
 40  5  1  0
 11  6  1  0
 21 12  1  0
 29 22  1  0
 36 31  1  0
 20 15  1  0
  1 42  1  0
  1 43  1  0
  1 44  1  0
  3 45  1  0
  3 46  1  0
  4 47  1  0
  4 48  1  0
  7 49  1  0
  8 50  1  0
 10 51  1  0
 11 52  1  0
 13 53  1  0
 16 54  1  0
 17 55  1  0
 18 56  1  0
 23 57  1  0
 29 58  1  0
 30 59  1  0
 30 60  1  0
 32 61  1  0
 32 62  1  0
 33 63  1  0
 33 64  1  0
 35 65  1  0
 35 66  1  0
 36 67  1  0
 37 68  1  0
 37 69  1  0
 39 70  1  0
 39 71  1  0
 40 72  1  0
 41 73  1  0
 41 74  1  0
M  END
>  <candidate_id>  (72) 
CAND_9c6324c16c

>  <source_generator>  (72) 
v5_3_model_guided_macrocycle

>  <parent_mol_id>  (72) 
JAK2_4424830aa8

>  <canonical_smiles>  (72) 
CN1CCN2c3ccc(cc3)-c3cnc4cccc(c4n3)-c3cc(F)c(c(F)c3)CN3CCOCC3COCC2C1

>  <inchikey>  (72) 
VAUZQGRYZWDNKQ-UHFFFAOYSA-N

>  <valid_rdkit>  (72) 
True

>  <unique_flag>  (72) 
True

>  <novel_flag>  (72) 
True

>  <mw>  (72) 
557.645

>  <logp>  (72) 
4.5934

>  <tpsa>  (72) 
53.96

>  <hbd>  (72) 
0

>  <hba>  (72) 
7

>  <rotatable_bonds>  (72) 
0

>  <qed>  (72) 
0.3135

>  <sa_score>  (72) 
5.054

>  <murcko_scaffold>  (72) 
c1cc2c3nc(cnc3c1)-c1ccc(cc1)N1CCNCC1COCC1COCCN1Cc1ccc-2cc1

>  <max_ring_size>  (72) 
20

>  <has_macrocycle_12_20>  (72) 
True

>  <has_constrained_ring_8_11>  (72) 
False

>  <passes_basic_filters>  (72) 
True

>  <generation_notes>  (72) 
v5_3_model_guided_anchor_pair=3-24;anchor_scores=0.079,0.079;linker_length=3;target_ring=19;linker_prob=0.610;chemotype=oxa

$$$$
CAND_dbfbb7d1cf
     RDKit          3D

 74 80  0  0  0  0  0  0  0  0999 V2000
    6.9269   -0.5781    0.6274 C   0  0  0  0  0  0  0  0  0  0  0  0
    6.1391   -0.6693   -0.5995 N   0  0  0  0  0  0  0  0  0  0  0  0
    5.7056   -2.0633   -0.8373 C   0  0  0  0  0  0  0  0  0  0  0  0
    4.3611   -2.1958   -1.5879 C   0  0  0  0  0  0  0  0  0  0  0  0
    3.2897   -1.5691   -0.7988 N   0  0  0  0  0  0  0  0  0  0  0  0
    2.0935   -2.2354   -0.5921 C   0  0  0  0  0  0  0  0  0  0  0  0
    1.4127   -2.1557    0.6285 C   0  0  0  0  0  0  0  0  0  0  0  0
    0.1216   -2.6638    0.7796 C   0  0  0  0  0  0  0  0  0  0  0  0
   -0.5354   -3.2992   -0.2820 C   0  0  0  0  0  0  0  0  0  0  0  0
    0.1741   -3.4812   -1.4734 C   0  0  0  0  0  0  0  0  0  0  0  0
    1.4676   -2.9548   -1.6210 C   0  0  0  0  0  0  0  0  0  0  0  0
   -1.9589   -3.6067   -0.1626 C   0  0  0  0  0  0  0  0  0  0  0  0
   -2.5460   -4.8342   -0.3969 C   0  0  0  0  0  0  0  0  0  0  0  0
   -3.8824   -5.0395   -0.2714 N   0  0  0  0  0  0  0  0  0  0  0  0
   -4.6317   -3.9703    0.0790 C   0  0  0  0  0  0  0  0  0  0  0  0
   -6.0074   -4.1036    0.2099 C   0  0  0  0  0  0  0  0  0  0  0  0
   -6.8164   -3.0172    0.5463 C   0  0  0  0  0  0  0  0  0  0  0  0
   -6.2432   -1.7657    0.7501 C   0  0  0  0  0  0  0  0  0  0  0  0
   -4.8555   -1.5963    0.6325 C   0  0  0  0  0  0  0  0  0  0  0  0
   -4.0482   -2.7025    0.3080 C   0  0  0  0  0  0  0  0  0  0  0  0
   -2.7162   -2.5462    0.1965 N   0  0  0  0  0  0  0  0  0  0  0  0
   -4.2445   -0.2612    0.7966 C   0  0  0  0  0  0  0  0  0  0  0  0
   -4.4692    0.7501   -0.1468 C   0  0  0  0  0  0  0  0  0  0  0  0
   -3.7718    1.9572   -0.0710 C   0  0  0  0  0  0  0  0  0  0  0  0
   -4.0246    2.8938   -0.9977 F   0  0  0  0  0  0  0  0  0  0  0  0
   -2.8332    2.2044    0.9334 C   0  0  0  0  0  0  0  0  0  0  0  0
   -2.6575    1.2174    1.8998 C   0  0  0  0  0  0  0  0  0  0  0  0
   -1.7972    1.4167    2.9092 F   0  0  0  0  0  0  0  0  0  0  0  0
   -3.3445    0.0037    1.8408 C   0  0  0  0  0  0  0  0  0  0  0  0
   -2.0591    3.4946    0.9705 C   0  0  0  0  0  0  0  0  0  0  0  0
   -1.1316    3.6272   -0.1624 N   0  0  0  0  0  0  0  0  0  0  0  0
   -1.3366    4.9203   -0.8526 C   0  0  0  0  0  0  0  0  0  0  0  0
   -0.1451    5.3100   -1.7304 C   0  0  0  0  0  0  0  0  0  0  0  0
    1.0379    5.5235   -0.9532 O   0  0  0  0  0  0  0  0  0  0  0  0
    1.1190    4.6742    0.2051 C   0  0  0  0  0  0  0  0  0  0  0  0
    0.3221    3.3485    0.0623 C   0  0  0  0  0  0  0  0  0  0  0  0
    0.6693    2.3446    1.1866 C   0  0  0  0  0  0  0  0  0  0  0  0
    2.4364    1.8363    1.2762 S   0  0  0  0  0  0  0  0  0  0  0  0
    2.5311    0.7660   -0.2131 C   0  0  0  0  0  0  0  0  0  0  0  0
    3.6366   -0.3187   -0.0589 C   0  0  0  0  0  0  0  0  0  0  0  0
    4.9897    0.2625   -0.5802 C   0  0  0  0  0  0  0  0  0  0  0  0
    7.3348    0.4315    0.7476 H   0  0  0  0  0  0  0  0  0  0  0  0
    6.3367   -0.8192    1.5188 H   0  0  0  0  0  0  0  0  0  0  0  0
    7.7844   -1.2589    0.5847 H   0  0  0  0  0  0  0  0  0  0  0  0
    5.6004   -2.5993    0.1165 H   0  0  0  0  0  0  0  0  0  0  0  0
    6.4884   -2.5758   -1.4080 H   0  0  0  0  0  0  0  0  0  0  0  0
    4.1745   -3.2650   -1.7456 H   0  0  0  0  0  0  0  0  0  0  0  0
    4.4186   -1.7213   -2.5747 H   0  0  0  0  0  0  0  0  0  0  0  0
    1.8561   -1.6485    1.4808 H   0  0  0  0  0  0  0  0  0  0  0  0
   -0.3978   -2.5029    1.7230 H   0  0  0  0  0  0  0  0  0  0  0  0
   -0.2984   -3.9521   -2.3325 H   0  0  0  0  0  0  0  0  0  0  0  0
    1.9465   -3.0402   -2.5934 H   0  0  0  0  0  0  0  0  0  0  0  0
   -1.9629   -5.7019   -0.6840 H   0  0  0  0  0  0  0  0  0  0  0  0
   -6.4592   -5.0782    0.0392 H   0  0  0  0  0  0  0  0  0  0  0  0
   -7.8919   -3.1489    0.6393 H   0  0  0  0  0  0  0  0  0  0  0  0
   -6.8804   -0.9197    1.0007 H   0  0  0  0  0  0  0  0  0  0  0  0
   -5.1518    0.5964   -0.9784 H   0  0  0  0  0  0  0  0  0  0  0  0
   -3.1324   -0.7522    2.5928 H   0  0  0  0  0  0  0  0  0  0  0  0
   -2.8194    4.2894    0.9517 H   0  0  0  0  0  0  0  0  0  0  0  0
   -1.5558    3.6439    1.9319 H   0  0  0  0  0  0  0  0  0  0  0  0
   -1.4776    5.7212   -0.1142 H   0  0  0  0  0  0  0  0  0  0  0  0
   -2.2414    4.8607   -1.4671 H   0  0  0  0  0  0  0  0  0  0  0  0
    0.0630    4.5436   -2.4861 H   0  0  0  0  0  0  0  0  0  0  0  0
   -0.3583    6.2417   -2.2644 H   0  0  0  0  0  0  0  0  0  0  0  0
    2.1851    4.4953    0.3659 H   0  0  0  0  0  0  0  0  0  0  0  0
    0.7586    5.2468    1.0685 H   0  0  0  0  0  0  0  0  0  0  0  0
    0.6498    2.8838   -0.8778 H   0  0  0  0  0  0  0  0  0  0  0  0
    0.0800    1.4294    1.0820 H   0  0  0  0  0  0  0  0  0  0  0  0
    0.4384    2.7786    2.1643 H   0  0  0  0  0  0  0  0  0  0  0  0
    1.5440    0.3241   -0.3630 H   0  0  0  0  0  0  0  0  0  0  0  0
    2.7224    1.4011   -1.0848 H   0  0  0  0  0  0  0  0  0  0  0  0
    3.7753   -0.5894    0.9960 H   0  0  0  0  0  0  0  0  0  0  0  0
    4.8452    0.5862   -1.6204 H   0  0  0  0  0  0  0  0  0  0  0  0
    5.2473    1.1770   -0.0309 H   0  0  0  0  0  0  0  0  0  0  0  0
  1  2  1  0
  2  3  1  0
  3  4  1  0
  4  5  1  0
  5  6  1  0
  6  7  2  0
  7  8  1  0
  8  9  2  0
  9 10  1  0
 10 11  2  0
  9 12  1  0
 12 13  2  0
 13 14  1  0
 14 15  2  0
 15 16  1  0
 16 17  2  0
 17 18  1  0
 18 19  2  0
 19 20  1  0
 20 21  2  0
 19 22  1  0
 22 23  2  0
 23 24  1  0
 24 25  1  0
 24 26  2  0
 26 27  1  0
 27 28  1  0
 27 29  2  0
 26 30  1  0
 30 31  1  0
 31 32  1  0
 32 33  1  0
 33 34  1  0
 34 35  1  0
 35 36  1  0
 36 37  1  0
 37 38  1  0
 38 39  1  0
 39 40  1  0
 40 41  1  0
 41  2  1  0
 40  5  1  0
 11  6  1  0
 21 12  1  0
 29 22  1  0
 36 31  1  0
 20 15  1  0
  1 42  1  0
  1 43  1  0
  1 44  1  0
  3 45  1  0
  3 46  1  0
  4 47  1  0
  4 48  1  0
  7 49  1  0
  8 50  1  0
 10 51  1  0
 11 52  1  0
 13 53  1  0
 16 54  1  0
 17 55  1  0
 18 56  1  0
 23 57  1  0
 29 58  1  0
 30 59  1  0
 30 60  1  0
 32 61  1  0
 32 62  1  0
 33 63  1  0
 33 64  1  0
 35 65  1  0
 35 66  1  0
 36 67  1  0
 37 68  1  0
 37 69  1  0
 39 70  1  0
 39 71  1  0
 40 72  1  0
 41 73  1  0
 41 74  1  0
M  END
>  <candidate_id>  (73) 
CAND_dbfbb7d1cf

>  <source_generator>  (73) 
v5_3_model_guided_macrocycle

>  <parent_mol_id>  (73) 
JAK2_4424830aa8

>  <canonical_smiles>  (73) 
CN1CCN2c3ccc(cc3)-c3cnc4cccc(c4n3)-c3cc(F)c(c(F)c3)CN3CCOCC3CSCC2C1

>  <inchikey>  (73) 
ZQXFNYDUOWZAAC-UHFFFAOYSA-N

>  <valid_rdkit>  (73) 
True

>  <unique_flag>  (73) 
True

>  <novel_flag>  (73) 
True

>  <mw>  (73) 
573.713

>  <logp>  (73) 
5.31

>  <tpsa>  (73) 
44.73

>  <hbd>  (73) 
0

>  <hba>  (73) 
7

>  <rotatable_bonds>  (73) 
0

>  <qed>  (73) 
0.2826

>  <sa_score>  (73) 
5.298

>  <murcko_scaffold>  (73) 
c1cc2c3nc(cnc3c1)-c1ccc(cc1)N1CCNCC1CSCC1COCCN1Cc1ccc-2cc1

>  <max_ring_size>  (73) 
20

>  <has_macrocycle_12_20>  (73) 
True

>  <has_constrained_ring_8_11>  (73) 
False

>  <passes_basic_filters>  (73) 
True

>  <generation_notes>  (73) 
v5_3_model_guided_anchor_pair=3-24;anchor_scores=0.079,0.079;linker_length=3;target_ring=19;linker_prob=0.610;chemotype=thioether

$$$$
CAND_a8aa3f8065
     RDKit          3D

 75 81  0  0  0  0  0  0  0  0999 V2000
    7.0432   -0.3047   -0.5285 C   0  0  0  0  0  0  0  0  0  0  0  0
    6.0565   -0.6966    0.4743 N   0  0  0  0  0  0  0  0  0  0  0  0
    5.6654   -2.1090    0.2912 C   0  0  0  0  0  0  0  0  0  0  0  0
    4.2574   -2.4424    0.8271 C   0  0  0  0  0  0  0  0  0  0  0  0
    3.2338   -1.6614    0.1084 N   0  0  0  0  0  0  0  0  0  0  0  0
    2.0009   -2.2382   -0.1405 C   0  0  0  0  0  0  0  0  0  0  0  0
    1.2582   -1.9422   -1.2871 C   0  0  0  0  0  0  0  0  0  0  0  0
   -0.0550   -2.4006   -1.4488 C   0  0  0  0  0  0  0  0  0  0  0  0
   -0.6640   -3.2087   -0.4800 C   0  0  0  0  0  0  0  0  0  0  0  0
    0.1027   -3.5970    0.6215 C   0  0  0  0  0  0  0  0  0  0  0  0
    1.4085   -3.1148    0.7843 C   0  0  0  0  0  0  0  0  0  0  0  0
   -2.0944   -3.4949   -0.5488 C   0  0  0  0  0  0  0  0  0  0  0  0
   -2.6621   -4.7541   -0.5679 C   0  0  0  0  0  0  0  0  0  0  0  0
   -4.0056   -4.9509   -0.5691 N   0  0  0  0  0  0  0  0  0  0  0  0
   -4.7798   -3.8441   -0.5226 C   0  0  0  0  0  0  0  0  0  0  0  0
   -6.1623   -3.9688   -0.4879 C   0  0  0  0  0  0  0  0  0  0  0  0
   -6.9940   -2.8505   -0.4105 C   0  0  0  0  0  0  0  0  0  0  0  0
   -6.4360   -1.5768   -0.3628 C   0  0  0  0  0  0  0  0  0  0  0  0
   -5.0436   -1.4150   -0.4056 C   0  0  0  0  0  0  0  0  0  0  0  0
   -4.2142   -2.5482   -0.4942 C   0  0  0  0  0  0  0  0  0  0  0  0
   -2.8770   -2.3951   -0.5291 N   0  0  0  0  0  0  0  0  0  0  0  0
   -4.4391   -0.0712   -0.3273 C   0  0  0  0  0  0  0  0  0  0  0  0
   -3.7410    0.4628   -1.4202 C   0  0  0  0  0  0  0  0  0  0  0  0
   -3.0408    1.6612   -1.2974 C   0  0  0  0  0  0  0  0  0  0  0  0
   -2.3690    2.1184   -2.3646 F   0  0  0  0  0  0  0  0  0  0  0  0
   -3.0105    2.3721   -0.0981 C   0  0  0  0  0  0  0  0  0  0  0  0
   -3.7437    1.8611    0.9722 C   0  0  0  0  0  0  0  0  0  0  0  0
   -3.7834    2.5254    2.1367 F   0  0  0  0  0  0  0  0  0  0  0  0
   -4.4512    0.6607    0.8685 C   0  0  0  0  0  0  0  0  0  0  0  0
   -2.2132    3.6433    0.0253 C   0  0  0  0  0  0  0  0  0  0  0  0
   -0.9985    3.5187    0.8647 N   0  0  0  0  0  0  0  0  0  0  0  0
   -0.4846    4.8602    1.1999 C   0  0  0  0  0  0  0  0  0  0  0  0
    0.0103    5.6665   -0.0163 C   0  0  0  0  0  0  0  0  0  0  0  0
    0.4589    4.8424   -1.0997 O   0  0  0  0  0  0  0  0  0  0  0  0
    1.0694    3.6376   -0.6263 C   0  0  0  0  0  0  0  0  0  0  0  0
    0.0870    2.7398    0.1804 C   0  0  0  0  0  0  0  0  0  0  0  0
    0.8610    1.8972    1.2524 C   0  0  0  0  0  0  0  0  0  0  0  0
    1.5808    0.7007    0.8229 N   0  0  0  0  0  0  0  0  0  0  0  0
    2.5288    0.8101   -0.2771 C   0  0  0  0  0  0  0  0  0  0  0  0
    3.6397   -0.3016   -0.3648 C   0  0  0  0  0  0  0  0  0  0  0  0
    4.8739    0.1918    0.4640 C   0  0  0  0  0  0  0  0  0  0  0  0
    7.4110    0.7080   -0.3294 H   0  0  0  0  0  0  0  0  0  0  0  0
    6.6338   -0.3285   -1.5448 H   0  0  0  0  0  0  0  0  0  0  0  0
    7.9150   -0.9674   -0.4903 H   0  0  0  0  0  0  0  0  0  0  0  0
    6.4027   -2.7430    0.7971 H   0  0  0  0  0  0  0  0  0  0  0  0
    5.6854   -2.3779   -0.7743 H   0  0  0  0  0  0  0  0  0  0  0  0
    4.1041   -3.5195    0.6837 H   0  0  0  0  0  0  0  0  0  0  0  0
    4.1957   -2.2343    1.9022 H   0  0  0  0  0  0  0  0  0  0  0  0
    1.6747   -1.3089   -2.0635 H   0  0  0  0  0  0  0  0  0  0  0  0
   -0.6243   -2.0690   -2.3151 H   0  0  0  0  0  0  0  0  0  0  0  0
   -0.3331   -4.2021    1.4132 H   0  0  0  0  0  0  0  0  0  0  0  0
    1.9291   -3.3733    1.7026 H   0  0  0  0  0  0  0  0  0  0  0  0
   -2.0560   -5.6530   -0.5810 H   0  0  0  0  0  0  0  0  0  0  0  0
   -6.6004   -4.9640   -0.5138 H   0  0  0  0  0  0  0  0  0  0  0  0
   -8.0736   -2.9770   -0.3805 H   0  0  0  0  0  0  0  0  0  0  0  0
   -7.0875   -0.7077   -0.2948 H   0  0  0  0  0  0  0  0  0  0  0  0
   -3.6907   -0.0754   -2.3631 H   0  0  0  0  0  0  0  0  0  0  0  0
   -4.9680    0.2847    1.7472 H   0  0  0  0  0  0  0  0  0  0  0  0
   -1.9783    4.0335   -0.9726 H   0  0  0  0  0  0  0  0  0  0  0  0
   -2.8887    4.3850    0.4745 H   0  0  0  0  0  0  0  0  0  0  0  0
   -1.2317    5.4414    1.7545 H   0  0  0  0  0  0  0  0  0  0  0  0
    0.3496    4.7406    1.9039 H   0  0  0  0  0  0  0  0  0  0  0  0
   -0.7978    6.2923   -0.4094 H   0  0  0  0  0  0  0  0  0  0  0  0
    0.8299    6.3309    0.2782 H   0  0  0  0  0  0  0  0  0  0  0  0
    1.4220    3.0994   -1.5111 H   0  0  0  0  0  0  0  0  0  0  0  0
    1.9494    3.9174   -0.0346 H   0  0  0  0  0  0  0  0  0  0  0  0
   -0.3657    2.0222   -0.5129 H   0  0  0  0  0  0  0  0  0  0  0  0
    1.5490    2.5463    1.8085 H   0  0  0  0  0  0  0  0  0  0  0  0
    0.1272    1.5429    1.9883 H   0  0  0  0  0  0  0  0  0  0  0  0
    1.9727    0.1752    1.6027 H   0  0  0  0  0  0  0  0  0  0  0  0
    1.9607    0.7982   -1.2135 H   0  0  0  0  0  0  0  0  0  0  0  0
    3.0360    1.7806   -0.2416 H   0  0  0  0  0  0  0  0  0  0  0  0
    3.9500   -0.3842   -1.4150 H   0  0  0  0  0  0  0  0  0  0  0  0
    4.5585    0.3030    1.5107 H   0  0  0  0  0  0  0  0  0  0  0  0
    5.1658    1.2002    0.1430 H   0  0  0  0  0  0  0  0  0  0  0  0
  1  2  1  0
  2  3  1  0
  3  4  1  0
  4  5  1  0
  5  6  1  0
  6  7  2  0
  7  8  1  0
  8  9  2  0
  9 10  1  0
 10 11  2  0
  9 12  1  0
 12 13  2  0
 13 14  1  0
 14 15  2  0
 15 16  1  0
 16 17  2  0
 17 18  1  0
 18 19  2  0
 19 20  1  0
 20 21  2  0
 19 22  1  0
 22 23  2  0
 23 24  1  0
 24 25  1  0
 24 26  2  0
 26 27  1  0
 27 28  1  0
 27 29  2  0
 26 30  1  0
 30 31  1  0
 31 32  1  0
 32 33  1  0
 33 34  1  0
 34 35  1  0
 35 36  1  0
 36 37  1  0
 37 38  1  0
 38 39  1  0
 39 40  1  0
 40 41  1  0
 41  2  1  0
 40  5  1  0
 11  6  1  0
 21 12  1  0
 29 22  1  0
 36 31  1  0
 20 15  1  0
  1 42  1  0
  1 43  1  0
  1 44  1  0
  3 45  1  0
  3 46  1  0
  4 47  1  0
  4 48  1  0
  7 49  1  0
  8 50  1  0
 10 51  1  0
 11 52  1  0
 13 53  1  0
 16 54  1  0
 17 55  1  0
 18 56  1  0
 23 57  1  0
 29 58  1  0
 30 59  1  0
 30 60  1  0
 32 61  1  0
 32 62  1  0
 33 63  1  0
 33 64  1  0
 35 65  1  0
 35 66  1  0
 36 67  1  0
 37 68  1  0
 37 69  1  0
 38 70  1  0
 39 71  1  0
 39 72  1  0
 40 73  1  0
 41 74  1  0
 41 75  1  0
M  END
>  <candidate_id>  (74) 
CAND_a8aa3f8065

>  <source_generator>  (74) 
v5_3_model_guided_macrocycle

>  <parent_mol_id>  (74) 
JAK2_4424830aa8

>  <canonical_smiles>  (74) 
CN1CCN2c3ccc(cc3)-c3cnc4cccc(c4n3)-c3cc(F)c(c(F)c3)CN3CCOCC3CNCC2C1

>  <inchikey>  (74) 
XSIKJHLRGSNBFX-UHFFFAOYSA-N

>  <valid_rdkit>  (74) 
True

>  <unique_flag>  (74) 
True

>  <novel_flag>  (74) 
True

>  <mw>  (74) 
556.661

>  <logp>  (74) 
4.1664

>  <tpsa>  (74) 
56.76

>  <hbd>  (74) 
1

>  <hba>  (74) 
7

>  <rotatable_bonds>  (74) 
0

>  <qed>  (74) 
0.3491

>  <sa_score>  (74) 
5.048

>  <murcko_scaffold>  (74) 
c1cc2c3nc(cnc3c1)-c1ccc(cc1)N1CCNCC1CNCC1COCCN1Cc1ccc-2cc1

>  <max_ring_size>  (74) 
20

>  <has_macrocycle_12_20>  (74) 
True

>  <has_constrained_ring_8_11>  (74) 
False

>  <passes_basic_filters>  (74) 
True

>  <generation_notes>  (74) 
v5_3_model_guided_anchor_pair=3-24;anchor_scores=0.079,0.079;linker_length=3;target_ring=19;linker_prob=0.610;chemotype=aza

$$$$
CAND_396f994be3
     RDKit          3D

 77 83  0  0  0  0  0  0  0  0999 V2000
   -5.4814    3.1922    1.3460 C   0  0  0  0  0  0  0  0  0  0  0  0
   -5.1533    3.0413   -0.0722 N   0  0  0  0  0  0  0  0  0  0  0  0
   -4.4481    4.2476   -0.5769 C   0  0  0  0  0  0  0  0  0  0  0  0
   -2.9185    4.1281   -0.8132 C   0  0  0  0  0  0  0  0  0  0  0  0
   -2.3119    3.2610    0.1967 N   0  0  0  0  0  0  0  0  0  0  0  0
   -0.9674    3.4472    0.4773 C   0  0  0  0  0  0  0  0  0  0  0  0
   -0.4249    2.9580    1.6658 C   0  0  0  0  0  0  0  0  0  0  0  0
    0.9576    2.8607    1.8083 C   0  0  0  0  0  0  0  0  0  0  0  0
    1.7868    3.2667    0.7644 C   0  0  0  0  0  0  0  0  0  0  0  0
    1.1661    3.8538   -0.3308 C   0  0  0  0  0  0  0  0  0  0  0  0
   -0.1754    3.9771   -0.4786 N   0  0  0  0  0  0  0  0  0  0  0  0
    3.1934    2.9089    0.7375 C   0  0  0  0  0  0  0  0  0  0  0  0
    4.2382    3.7384    1.0877 C   0  0  0  0  0  0  0  0  0  0  0  0
    5.5299    3.3307    1.0417 N   0  0  0  0  0  0  0  0  0  0  0  0
    5.7563    2.0634    0.6303 C   0  0  0  0  0  0  0  0  0  0  0  0
    7.0592    1.5906    0.5707 C   0  0  0  0  0  0  0  0  0  0  0  0
    7.3434    0.2915    0.1528 C   0  0  0  0  0  0  0  0  0  0  0  0
    6.3044   -0.5551   -0.2194 C   0  0  0  0  0  0  0  0  0  0  0  0
    4.9718   -0.1113   -0.1771 C   0  0  0  0  0  0  0  0  0  0  0  0
    4.6960    1.2011    0.2577 C   0  0  0  0  0  0  0  0  0  0  0  0
    3.4235    1.6416    0.3255 N   0  0  0  0  0  0  0  0  0  0  0  0
    3.8778   -1.0190   -0.5909 C   0  0  0  0  0  0  0  0  0  0  0  0
    3.0124   -0.6753   -1.6416 C   0  0  0  0  0  0  0  0  0  0  0  0
    1.9441   -1.5020   -1.9908 C   0  0  0  0  0  0  0  0  0  0  0  0
    1.1522   -1.1261   -3.0058 F   0  0  0  0  0  0  0  0  0  0  0  0
    1.6841   -2.6914   -1.3125 C   0  0  0  0  0  0  0  0  0  0  0  0
    2.5738   -3.0537   -0.2992 C   0  0  0  0  0  0  0  0  0  0  0  0
    2.4191   -4.2184    0.3485 F   0  0  0  0  0  0  0  0  0  0  0  0
    3.6493   -2.2368    0.0649 C   0  0  0  0  0  0  0  0  0  0  0  0
    0.5251   -3.5693   -1.7121 C   0  0  0  0  0  0  0  0  0  0  0  0
   -0.3481   -3.9494   -0.5729 N   0  0  0  0  0  0  0  0  0  0  0  0
   -0.6934   -5.3824   -0.6955 C   0  0  0  0  0  0  0  0  0  0  0  0
   -1.2808   -5.9548    0.5767 C   0  0  0  0  0  0  0  0  0  0  0  0
   -2.7788   -5.1161    0.9706 S   0  0  0  0  0  0  0  0  0  0  0  0
   -3.1271   -5.4356    2.3425 O   0  0  0  0  0  0  0  0  0  0  0  0
   -3.7314   -5.3432   -0.1006 O   0  0  0  0  0  0  0  0  0  0  0  0
   -2.2673   -3.4258    0.9161 C   0  0  0  0  0  0  0  0  0  0  0  0
   -1.5625   -3.0898   -0.4035 C   0  0  0  0  0  0  0  0  0  0  0  0
   -1.2330   -1.5729   -0.4373 C   0  0  0  0  0  0  0  0  0  0  0  0
   -2.3962   -0.6195   -0.1058 C   0  0  0  0  0  0  0  0  0  0  0  0
   -1.9777    0.8328   -0.3733 C   0  0  0  0  0  0  0  0  0  0  0  0
   -2.8817    1.8910    0.3133 C   0  0  0  0  0  0  0  0  0  0  0  0
   -4.3199    1.8429   -0.2983 C   0  0  0  0  0  0  0  0  0  0  0  0
   -4.6033    3.3830    1.9724 H   0  0  0  0  0  0  0  0  0  0  0  0
   -6.1842    4.0216    1.4846 H   0  0  0  0  0  0  0  0  0  0  0  0
   -5.9848    2.2945    1.7220 H   0  0  0  0  0  0  0  0  0  0  0  0
   -4.6337    5.1027    0.0870 H   0  0  0  0  0  0  0  0  0  0  0  0
   -4.9097    4.5254   -1.5328 H   0  0  0  0  0  0  0  0  0  0  0  0
   -2.7271    3.7173   -1.8129 H   0  0  0  0  0  0  0  0  0  0  0  0
   -2.4961    5.1405   -0.7832 H   0  0  0  0  0  0  0  0  0  0  0  0
   -1.0725    2.5742    2.4465 H   0  0  0  0  0  0  0  0  0  0  0  0
    1.3722    2.3824    2.6922 H   0  0  0  0  0  0  0  0  0  0  0  0
    1.7416    4.1950   -1.1879 H   0  0  0  0  0  0  0  0  0  0  0  0
    4.0768    4.7571    1.4222 H   0  0  0  0  0  0  0  0  0  0  0  0
    7.8729    2.2528    0.8582 H   0  0  0  0  0  0  0  0  0  0  0  0
    8.3736   -0.0546    0.1140 H   0  0  0  0  0  0  0  0  0  0  0  0
    6.5373   -1.5636   -0.5571 H   0  0  0  0  0  0  0  0  0  0  0  0
    3.1457    0.2556   -2.1880 H   0  0  0  0  0  0  0  0  0  0  0  0
    4.2890   -2.5585    0.8828 H   0  0  0  0  0  0  0  0  0  0  0  0
    0.9903   -4.4545   -2.1688 H   0  0  0  0  0  0  0  0  0  0  0  0
   -0.0695   -3.1289   -2.5222 H   0  0  0  0  0  0  0  0  0  0  0  0
   -1.3670   -5.5409   -1.5475 H   0  0  0  0  0  0  0  0  0  0  0  0
    0.2154   -5.9647   -0.8950 H   0  0  0  0  0  0  0  0  0  0  0  0
   -0.5961   -5.8414    1.4234 H   0  0  0  0  0  0  0  0  0  0  0  0
   -1.5171   -7.0166    0.4593 H   0  0  0  0  0  0  0  0  0  0  0  0
   -3.1875   -2.8496    1.0500 H   0  0  0  0  0  0  0  0  0  0  0  0
   -1.6154   -3.2461    1.7780 H   0  0  0  0  0  0  0  0  0  0  0  0
   -2.2494   -3.2898   -1.2375 H   0  0  0  0  0  0  0  0  0  0  0  0
   -0.8826   -1.3076   -1.4401 H   0  0  0  0  0  0  0  0  0  0  0  0
   -0.4133   -1.3656    0.2632 H   0  0  0  0  0  0  0  0  0  0  0  0
   -3.2764   -0.8736   -0.7063 H   0  0  0  0  0  0  0  0  0  0  0  0
   -2.6648   -0.7203    0.9512 H   0  0  0  0  0  0  0  0  0  0  0  0
   -0.9444    0.9385   -0.0280 H   0  0  0  0  0  0  0  0  0  0  0  0
   -1.9466    1.0127   -1.4560 H   0  0  0  0  0  0  0  0  0  0  0  0
   -2.9635    1.6527    1.3815 H   0  0  0  0  0  0  0  0  0  0  0  0
   -4.2494    1.6974   -1.3852 H   0  0  0  0  0  0  0  0  0  0  0  0
   -4.8458    0.9539    0.0730 H   0  0  0  0  0  0  0  0  0  0  0  0
  1  2  1  0
  2  3  1  0
  3  4  1  0
  4  5  1  0
  5  6  1  0
  6  7  2  0
  7  8  1  0
  8  9  2  0
  9 10  1  0
 10 11  2  0
  9 12  1  0
 12 13  2  0
 13 14  1  0
 14 15  2  0
 15 16  1  0
 16 17  2  0
 17 18  1  0
 18 19  2  0
 19 20  1  0
 20 21  2  0
 19 22  1  0
 22 23  2  0
 23 24  1  0
 24 25  1  0
 24 26  2  0
 26 27  1  0
 27 28  1  0
 27 29  2  0
 26 30  1  0
 30 31  1  0
 31 32  1  0
 32 33  1  0
 33 34  1  0
 34 35  2  0
 34 36  2  0
 34 37  1  0
 37 38  1  0
 38 39  1  0
 39 40  1  0
 40 41  1  0
 41 42  1  0
 42 43  1  0
 43  2  1  0
 42  5  1  0
 11  6  1  0
 21 12  1  0
 29 22  1  0
 38 31  1  0
 20 15  1  0
  1 44  1  0
  1 45  1  0
  1 46  1  0
  3 47  1  0
  3 48  1  0
  4 49  1  0
  4 50  1  0
  7 51  1  0
  8 52  1  0
 10 53  1  0
 13 54  1  0
 16 55  1  0
 17 56  1  0
 18 57  1  0
 23 58  1  0
 29 59  1  0
 30 60  1  0
 30 61  1  0
 32 62  1  0
 32 63  1  0
 33 64  1  0
 33 65  1  0
 37 66  1  0
 37 67  1  0
 38 68  1  0
 39 69  1  0
 39 70  1  0
 40 71  1  0
 40 72  1  0
 41 73  1  0
 41 74  1  0
 42 75  1  0
 43 76  1  0
 43 77  1  0
M  END
>  <candidate_id>  (75) 
CAND_396f994be3

>  <source_generator>  (75) 
v5_3_model_guided_macrocycle

>  <parent_mol_id>  (75) 
JAK2_52b2cf11d9

>  <canonical_smiles>  (75) 
CN1CCN2c3ccc(cn3)-c3cnc4cccc(c4n3)-c3cc(F)c(c(F)c3)CN3CCS(=O)(=O)CC3CCCC2C1

>  <inchikey>  (75) 
XRKOBNMXKVAZDZ-UHFFFAOYSA-N

>  <valid_rdkit>  (75) 
True

>  <unique_flag>  (75) 
True

>  <novel_flag>  (75) 
True

>  <mw>  (75) 
604.727

>  <logp>  (75) 
4.5403

>  <tpsa>  (75) 
82.53

>  <hbd>  (75) 
0

>  <hba>  (75) 
8

>  <rotatable_bonds>  (75) 
0

>  <qed>  (75) 
0.2896

>  <sa_score>  (75) 
5.315

>  <murcko_scaffold>  (75) 
O=S1(=O)CCN2Cc3ccc(cc3)-c3cccc4ncc(nc34)-c3ccc(nc3)N3CCNCC3CCCC2C1

>  <max_ring_size>  (75) 
20

>  <has_macrocycle_12_20>  (75) 
True

>  <has_constrained_ring_8_11>  (75) 
False

>  <passes_basic_filters>  (75) 
True

>  <generation_notes>  (75) 
v5_3_model_guided_anchor_pair=3-24;anchor_scores=0.079,0.079;linker_length=3;target_ring=19;linker_prob=0.650;chemotype=alkyl

$$$$
CAND_3c64f44e76
     RDKit          3D

 75 81  0  0  0  0  0  0  0  0999 V2000
   -5.6311    3.4765    1.8387 C   0  0  0  0  0  0  0  0  0  0  0  0
   -4.2740    3.0596    1.4990 N   0  0  0  0  0  0  0  0  0  0  0  0
   -3.4968    4.1615    0.8848 C   0  0  0  0  0  0  0  0  0  0  0  0
   -3.2146    3.9898   -0.6242 C   0  0  0  0  0  0  0  0  0  0  0  0
   -2.5071    2.7276   -0.9027 N   0  0  0  0  0  0  0  0  0  0  0  0
   -1.1170    2.8641   -1.0014 C   0  0  0  0  0  0  0  0  0  0  0  0
   -0.4056    2.0258   -1.8485 C   0  0  0  0  0  0  0  0  0  0  0  0
    0.9847    2.0179   -1.8012 C   0  0  0  0  0  0  0  0  0  0  0  0
    1.6637    2.8664   -0.9235 C   0  0  0  0  0  0  0  0  0  0  0  0
    0.8752    3.7404   -0.1878 C   0  0  0  0  0  0  0  0  0  0  0  0
   -0.4808    3.7663   -0.2211 N   0  0  0  0  0  0  0  0  0  0  0  0
    3.0936    2.7091   -0.6947 C   0  0  0  0  0  0  0  0  0  0  0  0
    4.0364    3.7185   -0.6780 C   0  0  0  0  0  0  0  0  0  0  0  0
    5.3482    3.4881   -0.4121 N   0  0  0  0  0  0  0  0  0  0  0  0
    5.7001    2.2111   -0.1398 C   0  0  0  0  0  0  0  0  0  0  0  0
    7.0188    1.8991    0.1640 C   0  0  0  0  0  0  0  0  0  0  0  0
    7.4064    0.5937    0.4737 C   0  0  0  0  0  0  0  0  0  0  0  0
    6.4585   -0.4256    0.4863 C   0  0  0  0  0  0  0  0  0  0  0  0
    5.1207   -0.1449    0.1765 C   0  0  0  0  0  0  0  0  0  0  0  0
    4.7446    1.1704   -0.1446 C   0  0  0  0  0  0  0  0  0  0  0  0
    3.4593    1.4353   -0.4372 N   0  0  0  0  0  0  0  0  0  0  0  0
    4.0946   -1.2037    0.2173 C   0  0  0  0  0  0  0  0  0  0  0  0
    3.6003   -1.6786    1.4397 C   0  0  0  0  0  0  0  0  0  0  0  0
    2.5257   -2.5691    1.4690 C   0  0  0  0  0  0  0  0  0  0  0  0
    2.0833   -2.9969    2.6608 F   0  0  0  0  0  0  0  0  0  0  0  0
    1.9145   -3.0208    0.2987 C   0  0  0  0  0  0  0  0  0  0  0  0
    2.4304   -2.5671   -0.9130 C   0  0  0  0  0  0  0  0  0  0  0  0
    1.8895   -2.9828   -2.0669 F   0  0  0  0  0  0  0  0  0  0  0  0
    3.5025   -1.6768   -0.9636 C   0  0  0  0  0  0  0  0  0  0  0  0
    0.7591   -3.9803    0.3490 C   0  0  0  0  0  0  0  0  0  0  0  0
   -0.5307   -3.3460    0.7108 N   0  0  0  0  0  0  0  0  0  0  0  0
   -1.4098   -4.2816    1.4219 C   0  0  0  0  0  0  0  0  0  0  0  0
   -1.8487   -5.4877    0.6110 C   0  0  0  0  0  0  0  0  0  0  0  0
   -2.5325   -4.9925   -0.9508 S   0  0  0  0  0  0  0  0  0  0  0  0
   -3.9156   -5.4323   -0.9845 O   0  0  0  0  0  0  0  0  0  0  0  0
   -1.6084   -5.3877   -1.9966 O   0  0  0  0  0  0  0  0  0  0  0  0
   -2.5457   -3.2275   -0.8594 C   0  0  0  0  0  0  0  0  0  0  0  0
   -1.1836   -2.6629   -0.4379 C   0  0  0  0  0  0  0  0  0  0  0  0
   -1.3746   -1.1599   -0.0938 C   0  0  0  0  0  0  0  0  0  0  0  0
   -1.9471   -0.4784   -1.2161 O   0  0  0  0  0  0  0  0  0  0  0  0
   -3.1348    0.2725   -0.9282 C   0  0  0  0  0  0  0  0  0  0  0  0
   -2.9312    1.5516   -0.0725 C   0  0  0  0  0  0  0  0  0  0  0  0
   -4.2915    1.8626    0.6334 C   0  0  0  0  0  0  0  0  0  0  0  0
   -6.1779    2.6563    2.3171 H   0  0  0  0  0  0  0  0  0  0  0  0
   -5.6101    4.3015    2.5593 H   0  0  0  0  0  0  0  0  0  0  0  0
   -6.1961    3.8012    0.9575 H   0  0  0  0  0  0  0  0  0  0  0  0
   -2.5443    4.2145    1.4249 H   0  0  0  0  0  0  0  0  0  0  0  0
   -3.9838    5.1311    1.0479 H   0  0  0  0  0  0  0  0  0  0  0  0
   -4.1683    3.9731   -1.1676 H   0  0  0  0  0  0  0  0  0  0  0  0
   -2.6729    4.8614   -1.0139 H   0  0  0  0  0  0  0  0  0  0  0  0
   -0.9248    1.3433   -2.5119 H   0  0  0  0  0  0  0  0  0  0  0  0
    1.5307    1.2983   -2.4076 H   0  0  0  0  0  0  0  0  0  0  0  0
    1.3113    4.4325    0.5278 H   0  0  0  0  0  0  0  0  0  0  0  0
    3.7770    4.7514   -0.8825 H   0  0  0  0  0  0  0  0  0  0  0  0
    7.7601    2.6950    0.1651 H   0  0  0  0  0  0  0  0  0  0  0  0
    8.4456    0.3776    0.7110 H   0  0  0  0  0  0  0  0  0  0  0  0
    6.7635   -1.4398    0.7367 H   0  0  0  0  0  0  0  0  0  0  0  0
    4.0144   -1.3293    2.3819 H   0  0  0  0  0  0  0  0  0  0  0  0
    3.8410   -1.3226   -1.9341 H   0  0  0  0  0  0  0  0  0  0  0  0
    0.6776   -4.5400   -0.5914 H   0  0  0  0  0  0  0  0  0  0  0  0
    1.0272   -4.7368    1.1003 H   0  0  0  0  0  0  0  0  0  0  0  0
   -2.2901   -3.7351    1.7846 H   0  0  0  0  0  0  0  0  0  0  0  0
   -0.9092   -4.6284    2.3350 H   0  0  0  0  0  0  0  0  0  0  0  0
   -2.6185   -6.0451    1.1535 H   0  0  0  0  0  0  0  0  0  0  0  0
   -1.0148   -6.1669    0.4096 H   0  0  0  0  0  0  0  0  0  0  0  0
   -2.8368   -2.8639   -1.8509 H   0  0  0  0  0  0  0  0  0  0  0  0
   -3.3384   -2.9506   -0.1551 H   0  0  0  0  0  0  0  0  0  0  0  0
   -0.5423   -2.7132   -1.3271 H   0  0  0  0  0  0  0  0  0  0  0  0
   -0.4050   -0.6941    0.1140 H   0  0  0  0  0  0  0  0  0  0  0  0
   -1.9999   -1.0515    0.8015 H   0  0  0  0  0  0  0  0  0  0  0  0
   -3.5714    0.5481   -1.8953 H   0  0  0  0  0  0  0  0  0  0  0  0
   -3.8465   -0.4112   -0.4497 H   0  0  0  0  0  0  0  0  0  0  0  0
   -2.1840    1.3684    0.7118 H   0  0  0  0  0  0  0  0  0  0  0  0
   -5.0669    1.9678   -0.1392 H   0  0  0  0  0  0  0  0  0  0  0  0
   -4.5749    1.0022    1.2527 H   0  0  0  0  0  0  0  0  0  0  0  0
  1  2  1  0
  2  3  1  0
  3  4  1  0
  4  5  1  0
  5  6  1  0
  6  7  2  0
  7  8  1  0
  8  9  2  0
  9 10  1  0
 10 11  2  0
  9 12  1  0
 12 13  2  0
 13 14  1  0
 14 15  2  0
 15 16  1  0
 16 17  2  0
 17 18  1  0
 18 19  2  0
 19 20  1  0
 20 21  2  0
 19 22  1  0
 22 23  2  0
 23 24  1  0
 24 25  1  0
 24 26  2  0
 26 27  1  0
 27 28  1  0
 27 29  2  0
 26 30  1  0
 30 31  1  0
 31 32  1  0
 32 33  1  0
 33 34  1  0
 34 35  2  0
 34 36  2  0
 34 37  1  0
 37 38  1  0
 38 39  1  0
 39 40  1  0
 40 41  1  0
 41 42  1  0
 42 43  1  0
 43  2  1  0
 42  5  1  0
 11  6  1  0
 21 12  1  0
 29 22  1  0
 38 31  1  0
 20 15  1  0
  1 44  1  0
  1 45  1  0
  1 46  1  0
  3 47  1  0
  3 48  1  0
  4 49  1  0
  4 50  1  0
  7 51  1  0
  8 52  1  0
 10 53  1  0
 13 54  1  0
 16 55  1  0
 17 56  1  0
 18 57  1  0
 23 58  1  0
 29 59  1  0
 30 60  1  0
 30 61  1  0
 32 62  1  0
 32 63  1  0
 33 64  1  0
 33 65  1  0
 37 66  1  0
 37 67  1  0
 38 68  1  0
 39 69  1  0
 39 70  1  0
 41 71  1  0
 41 72  1  0
 42 73  1  0
 43 74  1  0
 43 75  1  0
M  END
>  <candidate_id>  (76) 
CAND_3c64f44e76

>  <source_generator>  (76) 
v5_3_model_guided_macrocycle

>  <parent_mol_id>  (76) 
JAK2_52b2cf11d9

>  <canonical_smiles>  (76) 
CN1CCN2c3ccc(cn3)-c3cnc4cccc(c4n3)-c3cc(F)c(c(F)c3)CN3CCS(=O)(=O)CC3COCC2C1

>  <inchikey>  (76) 
YWSGJALAUQEGQN-UHFFFAOYSA-N

>  <valid_rdkit>  (76) 
True

>  <unique_flag>  (76) 
True

>  <novel_flag>  (76) 
True

>  <mw>  (76) 
606.699

>  <logp>  (76) 
3.3866

>  <tpsa>  (76) 
91.76

>  <hbd>  (76) 
0

>  <hba>  (76) 
9

>  <rotatable_bonds>  (76) 
0

>  <qed>  (76) 
0.2989

>  <sa_score>  (76) 
5.326

>  <murcko_scaffold>  (76) 
O=S1(=O)CCN2Cc3ccc(cc3)-c3cccc4ncc(nc34)-c3ccc(nc3)N3CCNCC3COCC2C1

>  <max_ring_size>  (76) 
20

>  <has_macrocycle_12_20>  (76) 
True

>  <has_constrained_ring_8_11>  (76) 
False

>  <passes_basic_filters>  (76) 
True

>  <generation_notes>  (76) 
v5_3_model_guided_anchor_pair=3-24;anchor_scores=0.079,0.079;linker_length=3;target_ring=19;linker_prob=0.650;chemotype=oxa

$$$$
CAND_f134535edd
     RDKit          3D

 76 82  0  0  0  0  0  0  0  0999 V2000
   -5.1846    2.4830    1.9155 C   0  0  0  0  0  0  0  0  0  0  0  0
   -5.1405    2.8063    0.4887 N   0  0  0  0  0  0  0  0  0  0  0  0
   -4.5368    4.1479    0.2748 C   0  0  0  0  0  0  0  0  0  0  0  0
   -3.0549    4.1969   -0.1912 C   0  0  0  0  0  0  0  0  0  0  0  0
   -2.3098    3.0681    0.3603 N   0  0  0  0  0  0  0  0  0  0  0  0
   -0.9470    3.2069    0.5568 C   0  0  0  0  0  0  0  0  0  0  0  0
   -0.2754    2.3316    1.4054 C   0  0  0  0  0  0  0  0  0  0  0  0
    1.1124    2.2741    1.3759 C   0  0  0  0  0  0  0  0  0  0  0  0
    1.8318    3.1006    0.5093 C   0  0  0  0  0  0  0  0  0  0  0  0
    1.0864    4.0314   -0.2028 C   0  0  0  0  0  0  0  0  0  0  0  0
   -0.2691    4.1125   -0.1800 N   0  0  0  0  0  0  0  0  0  0  0  0
    3.2472    2.8502    0.2610 C   0  0  0  0  0  0  0  0  0  0  0  0
    4.2407    3.8008    0.1309 C   0  0  0  0  0  0  0  0  0  0  0  0
    5.5264    3.4771   -0.1629 N   0  0  0  0  0  0  0  0  0  0  0  0
    5.7985    2.1659   -0.3497 C   0  0  0  0  0  0  0  0  0  0  0  0
    7.0855    1.7610   -0.6786 C   0  0  0  0  0  0  0  0  0  0  0  0
    7.3926    0.4171   -0.9000 C   0  0  0  0  0  0  0  0  0  0  0  0
    6.3941   -0.5469   -0.7954 C   0  0  0  0  0  0  0  0  0  0  0  0
    5.0861   -0.1714   -0.4592 C   0  0  0  0  0  0  0  0  0  0  0  0
    4.7913    1.1824   -0.2277 C   0  0  0  0  0  0  0  0  0  0  0  0
    3.5363    1.5398    0.0945 N   0  0  0  0  0  0  0  0  0  0  0  0
    4.0156   -1.1812   -0.3683 C   0  0  0  0  0  0  0  0  0  0  0  0
    3.3243   -1.6032   -1.5133 C   0  0  0  0  0  0  0  0  0  0  0  0
    2.2474   -2.4861   -1.4068 C   0  0  0  0  0  0  0  0  0  0  0  0
    1.6169   -2.8651   -2.5274 F   0  0  0  0  0  0  0  0  0  0  0  0
    1.8257   -2.9802   -0.1742 C   0  0  0  0  0  0  0  0  0  0  0  0
    2.5235   -2.5620    0.9597 C   0  0  0  0  0  0  0  0  0  0  0  0
    2.1710   -3.0242    2.1688 F   0  0  0  0  0  0  0  0  0  0  0  0
    3.6015   -1.6798    0.8745 C   0  0  0  0  0  0  0  0  0  0  0  0
    0.6918   -3.9606   -0.0641 C   0  0  0  0  0  0  0  0  0  0  0  0
   -0.5567   -3.3695    0.4701 N   0  0  0  0  0  0  0  0  0  0  0  0
   -1.2813   -4.3151    1.3260 C   0  0  0  0  0  0  0  0  0  0  0  0
   -1.8226   -5.5347    0.6046 C   0  0  0  0  0  0  0  0  0  0  0  0
   -2.8120   -5.0559   -0.7883 S   0  0  0  0  0  0  0  0  0  0  0  0
   -4.1723   -5.4946   -0.5350 O   0  0  0  0  0  0  0  0  0  0  0  0
   -2.1189   -5.4616   -1.9962 O   0  0  0  0  0  0  0  0  0  0  0  0
   -2.8109   -3.2880   -0.7164 C   0  0  0  0  0  0  0  0  0  0  0  0
   -1.3917   -2.7270   -0.5844 C   0  0  0  0  0  0  0  0  0  0  0  0
   -1.4612   -1.1968   -0.2780 C   0  0  0  0  0  0  0  0  0  0  0  0
   -2.2753   -0.4433   -1.2459 N   0  0  0  0  0  0  0  0  0  0  0  0
   -2.0868    1.0146   -1.1138 C   0  0  0  0  0  0  0  0  0  0  0  0
   -2.8462    1.7126    0.0673 C   0  0  0  0  0  0  0  0  0  0  0  0
   -4.3724    1.7917   -0.2632 C   0  0  0  0  0  0  0  0  0  0  0  0
   -4.2016    2.5182    2.3970 H   0  0  0  0  0  0  0  0  0  0  0  0
   -5.8446    3.1830    2.4405 H   0  0  0  0  0  0  0  0  0  0  0  0
   -5.6080    1.4842    2.0698 H   0  0  0  0  0  0  0  0  0  0  0  0
   -4.6421    4.7595    1.1811 H   0  0  0  0  0  0  0  0  0  0  0  0
   -5.1378    4.6642   -0.4844 H   0  0  0  0  0  0  0  0  0  0  0  0
   -3.0080    4.1641   -1.2871 H   0  0  0  0  0  0  0  0  0  0  0  0
   -2.6344    5.1578    0.1311 H   0  0  0  0  0  0  0  0  0  0  0  0
   -0.8209    1.6406    2.0377 H   0  0  0  0  0  0  0  0  0  0  0  0
    1.6249    1.5202    1.9704 H   0  0  0  0  0  0  0  0  0  0  0  0
    1.5545    4.7212   -0.9004 H   0  0  0  0  0  0  0  0  0  0  0  0
    4.0460    4.8597    0.2590 H   0  0  0  0  0  0  0  0  0  0  0  0
    7.8657    2.5132   -0.7706 H   0  0  0  0  0  0  0  0  0  0  0  0
    8.4081    0.1275   -1.1602 H   0  0  0  0  0  0  0  0  0  0  0  0
    6.6357   -1.5923   -0.9776 H   0  0  0  0  0  0  0  0  0  0  0  0
    3.5960   -1.2278   -2.4967 H   0  0  0  0  0  0  0  0  0  0  0  0
    4.0964   -1.3678    1.7905 H   0  0  0  0  0  0  0  0  0  0  0  0
    1.0509   -4.7549    0.6061 H   0  0  0  0  0  0  0  0  0  0  0  0
    0.5153   -4.4719   -1.0194 H   0  0  0  0  0  0  0  0  0  0  0  0
   -0.6266   -4.6432    2.1436 H   0  0  0  0  0  0  0  0  0  0  0  0
   -2.0990   -3.7837    1.8297 H   0  0  0  0  0  0  0  0  0  0  0  0
   -2.4528   -6.1232    1.2784 H   0  0  0  0  0  0  0  0  0  0  0  0
   -1.0189   -6.1805    0.2382 H   0  0  0  0  0  0  0  0  0  0  0  0
   -3.2912   -2.9461   -1.6395 H   0  0  0  0  0  0  0  0  0  0  0  0
   -3.4494   -2.9933    0.1240 H   0  0  0  0  0  0  0  0  0  0  0  0
   -0.9081   -2.8423   -1.5638 H   0  0  0  0  0  0  0  0  0  0  0  0
   -0.4353   -0.8070   -0.2811 H   0  0  0  0  0  0  0  0  0  0  0  0
   -1.8645   -1.0451    0.7309 H   0  0  0  0  0  0  0  0  0  0  0  0
   -3.2622   -0.6745   -1.1532 H   0  0  0  0  0  0  0  0  0  0  0  0
   -2.4209    1.4703   -2.0548 H   0  0  0  0  0  0  0  0  0  0  0  0
   -1.0112    1.2174   -1.0866 H   0  0  0  0  0  0  0  0  0  0  0  0
   -2.7413    1.1096    0.9771 H   0  0  0  0  0  0  0  0  0  0  0  0
   -4.8278    0.8032   -0.1208 H   0  0  0  0  0  0  0  0  0  0  0  0
   -4.5080    2.0145   -1.3304 H   0  0  0  0  0  0  0  0  0  0  0  0
  1  2  1  0
  2  3  1  0
  3  4  1  0
  4  5  1  0
  5  6  1  0
  6  7  2  0
  7  8  1  0
  8  9  2  0
  9 10  1  0
 10 11  2  0
  9 12  1  0
 12 13  2  0
 13 14  1  0
 14 15  2  0
 15 16  1  0
 16 17  2  0
 17 18  1  0
 18 19  2  0
 19 20  1  0
 20 21  2  0
 19 22  1  0
 22 23  2  0
 23 24  1  0
 24 25  1  0
 24 26  2  0
 26 27  1  0
 27 28  1  0
 27 29  2  0
 26 30  1  0
 30 31  1  0
 31 32  1  0
 32 33  1  0
 33 34  1  0
 34 35  2  0
 34 36  2  0
 34 37  1  0
 37 38  1  0
 38 39  1  0
 39 40  1  0
 40 41  1  0
 41 42  1  0
 42 43  1  0
 43  2  1  0
 42  5  1  0
 11  6  1  0
 21 12  1  0
 29 22  1  0
 38 31  1  0
 20 15  1  0
  1 44  1  0
  1 45  1  0
  1 46  1  0
  3 47  1  0
  3 48  1  0
  4 49  1  0
  4 50  1  0
  7 51  1  0
  8 52  1  0
 10 53  1  0
 13 54  1  0
 16 55  1  0
 17 56  1  0
 18 57  1  0
 23 58  1  0
 29 59  1  0
 30 60  1  0
 30 61  1  0
 32 62  1  0
 32 63  1  0
 33 64  1  0
 33 65  1  0
 37 66  1  0
 37 67  1  0
 38 68  1  0
 39 69  1  0
 39 70  1  0
 40 71  1  0
 41 72  1  0
 41 73  1  0
 42 74  1  0
 43 75  1  0
 43 76  1  0
M  END
>  <candidate_id>  (77) 
CAND_f134535edd

>  <source_generator>  (77) 
v5_3_model_guided_macrocycle

>  <parent_mol_id>  (77) 
JAK2_52b2cf11d9

>  <canonical_smiles>  (77) 
CN1CCN2c3ccc(cn3)-c3cnc4cccc(c4n3)-c3cc(F)c(c(F)c3)CN3CCS(=O)(=O)CC3CNCC2C1

>  <inchikey>  (77) 
YGRQCALJJPLZDA-UHFFFAOYSA-N

>  <valid_rdkit>  (77) 
True

>  <unique_flag>  (77) 
True

>  <novel_flag>  (77) 
True

>  <mw>  (77) 
605.715

>  <logp>  (77) 
2.9596

>  <tpsa>  (77) 
94.56

>  <hbd>  (77) 
1

>  <hba>  (77) 
9

>  <rotatable_bonds>  (77) 
0

>  <qed>  (77) 
0.3248

>  <sa_score>  (77) 
5.321

>  <murcko_scaffold>  (77) 
O=S1(=O)CCN2Cc3ccc(cc3)-c3cccc4ncc(nc34)-c3ccc(nc3)N3CCNCC3CNCC2C1

>  <max_ring_size>  (77) 
20

>  <has_macrocycle_12_20>  (77) 
True

>  <has_constrained_ring_8_11>  (77) 
False

>  <passes_basic_filters>  (77) 
True

>  <generation_notes>  (77) 
v5_3_model_guided_anchor_pair=3-24;anchor_scores=0.079,0.079;linker_length=3;target_ring=19;linker_prob=0.650;chemotype=aza

$$$$
CAND_9b2dbc98ed
     RDKit          3D

 75 81  0  0  0  0  0  0  0  0999 V2000
    6.8397    2.6748   -0.7277 C   0  0  0  0  0  0  0  0  0  0  0  0
    6.0237    1.4727   -0.8885 N   0  0  0  0  0  0  0  0  0  0  0  0
    6.1288    0.6112    0.3078 C   0  0  0  0  0  0  0  0  0  0  0  0
    5.2732   -0.6677    0.1931 C   0  0  0  0  0  0  0  0  0  0  0  0
    3.8692   -0.3498   -0.1098 N   0  0  0  0  0  0  0  0  0  0  0  0
    3.0206   -1.4517   -0.0347 C   0  0  0  0  0  0  0  0  0  0  0  0
    2.6857   -1.9693    1.2158 C   0  0  0  0  0  0  0  0  0  0  0  0
    1.7091   -2.9597    1.3179 C   0  0  0  0  0  0  0  0  0  0  0  0
    1.0784   -3.4250    0.1656 C   0  0  0  0  0  0  0  0  0  0  0  0
    1.5174   -2.8971   -1.0419 C   0  0  0  0  0  0  0  0  0  0  0  0
    2.4757   -1.9485   -1.1643 N   0  0  0  0  0  0  0  0  0  0  0  0
   -0.0946   -4.2769    0.2222 C   0  0  0  0  0  0  0  0  0  0  0  0
   -0.0791   -5.6570    0.2125 C   0  0  0  0  0  0  0  0  0  0  0  0
   -1.2165   -6.3939    0.2463 N   0  0  0  0  0  0  0  0  0  0  0  0
   -2.3821   -5.7122    0.2937 C   0  0  0  0  0  0  0  0  0  0  0  0
   -3.5818   -6.4093    0.3200 C   0  0  0  0  0  0  0  0  0  0  0  0
   -4.8077   -5.7463    0.3646 C   0  0  0  0  0  0  0  0  0  0  0  0
   -4.8386   -4.3557    0.3885 C   0  0  0  0  0  0  0  0  0  0  0  0
   -3.6439   -3.6178    0.3693 C   0  0  0  0  0  0  0  0  0  0  0  0
   -2.4127   -4.2967    0.3143 C   0  0  0  0  0  0  0  0  0  0  0  0
   -1.2608   -3.5988    0.2733 N   0  0  0  0  0  0  0  0  0  0  0  0
   -3.6837   -2.1415    0.4083 C   0  0  0  0  0  0  0  0  0  0  0  0
   -4.2305   -1.3999   -0.6474 C   0  0  0  0  0  0  0  0  0  0  0  0
   -4.2024   -0.0037   -0.6209 C   0  0  0  0  0  0  0  0  0  0  0  0
   -4.7461    0.6645   -1.6491 F   0  0  0  0  0  0  0  0  0  0  0  0
   -3.6432    0.7005    0.4465 C   0  0  0  0  0  0  0  0  0  0  0  0
   -3.1116   -0.0411    1.4975 C   0  0  0  0  0  0  0  0  0  0  0  0
   -2.5738    0.5860    2.5531 F   0  0  0  0  0  0  0  0  0  0  0  0
   -3.1286   -1.4354    1.4880 C   0  0  0  0  0  0  0  0  0  0  0  0
   -3.6412    2.2029    0.4687 C   0  0  0  0  0  0  0  0  0  0  0  0
   -2.5999    2.8042   -0.3932 N   0  0  0  0  0  0  0  0  0  0  0  0
   -3.0369    4.0808   -0.9675 C   0  0  0  0  0  0  0  0  0  0  0  0
   -3.2570    5.1885    0.0447 C   0  0  0  0  0  0  0  0  0  0  0  0
   -1.8283    5.3950    1.0760 S   0  0  0  0  0  0  0  0  0  0  0  0
   -1.3112    6.7321    0.8472 O   0  0  0  0  0  0  0  0  0  0  0  0
   -2.1733    4.9583    2.4158 O   0  0  0  0  0  0  0  0  0  0  0  0
   -0.6565    4.2507    0.4033 C   0  0  0  0  0  0  0  0  0  0  0  0
   -1.2554    2.8457    0.2535 C   0  0  0  0  0  0  0  0  0  0  0  0
   -0.3132    1.9438   -0.5910 C   0  0  0  0  0  0  0  0  0  0  0  0
    1.4066    1.8619    0.0367 S   0  0  0  0  0  0  0  0  0  0  0  0
    2.1941    1.0676   -1.4235 C   0  0  0  0  0  0  0  0  0  0  0  0
    3.6652    0.5933   -1.2421 C   0  0  0  0  0  0  0  0  0  0  0  0
    4.5988    1.8341   -1.0800 C   0  0  0  0  0  0  0  0  0  0  0  0
    7.8952    2.4072   -0.6068 H   0  0  0  0  0  0  0  0  0  0  0  0
    6.5352    3.2743    0.1379 H   0  0  0  0  0  0  0  0  0  0  0  0
    6.7749    3.3039   -1.6223 H   0  0  0  0  0  0  0  0  0  0  0  0
    7.1737    0.3100    0.4511 H   0  0  0  0  0  0  0  0  0  0  0  0
    5.8223    1.1654    1.2056 H   0  0  0  0  0  0  0  0  0  0  0  0
    5.3598   -1.2160    1.1391 H   0  0  0  0  0  0  0  0  0  0  0  0
    5.6835   -1.3091   -0.5985 H   0  0  0  0  0  0  0  0  0  0  0  0
    3.1187   -1.5419    2.1144 H   0  0  0  0  0  0  0  0  0  0  0  0
    1.3927   -3.2988    2.3009 H   0  0  0  0  0  0  0  0  0  0  0  0
    1.0599   -3.1942   -1.9826 H   0  0  0  0  0  0  0  0  0  0  0  0
    0.8464   -6.2207    0.1718 H   0  0  0  0  0  0  0  0  0  0  0  0
   -3.5588   -7.4966    0.3035 H   0  0  0  0  0  0  0  0  0  0  0  0
   -5.7340   -6.3157    0.3845 H   0  0  0  0  0  0  0  0  0  0  0  0
   -5.7988   -3.8449    0.4340 H   0  0  0  0  0  0  0  0  0  0  0  0
   -4.6622   -1.8956   -1.5128 H   0  0  0  0  0  0  0  0  0  0  0  0
   -2.6806   -1.9651    2.3255 H   0  0  0  0  0  0  0  0  0  0  0  0
   -3.5752    2.5811    1.4971 H   0  0  0  0  0  0  0  0  0  0  0  0
   -4.6391    2.5114    0.1256 H   0  0  0  0  0  0  0  0  0  0  0  0
   -3.9625    3.9272   -1.5370 H   0  0  0  0  0  0  0  0  0  0  0  0
   -2.3050    4.4010   -1.7202 H   0  0  0  0  0  0  0  0  0  0  0  0
   -3.4419    6.1370   -0.4686 H   0  0  0  0  0  0  0  0  0  0  0  0
   -4.1119    4.9802    0.6952 H   0  0  0  0  0  0  0  0  0  0  0  0
    0.1935    4.2563    1.0935 H   0  0  0  0  0  0  0  0  0  0  0  0
   -0.3166    4.6579   -0.5556 H   0  0  0  0  0  0  0  0  0  0  0  0
   -1.3171    2.4141    1.2609 H   0  0  0  0  0  0  0  0  0  0  0  0
   -0.7023    0.9201   -0.6227 H   0  0  0  0  0  0  0  0  0  0  0  0
   -0.2763    2.3215   -1.6198 H   0  0  0  0  0  0  0  0  0  0  0  0
    1.5532    0.2370   -1.7291 H   0  0  0  0  0  0  0  0  0  0  0  0
    2.1603    1.7965   -2.2418 H   0  0  0  0  0  0  0  0  0  0  0  0
    3.9637    0.0845   -2.1705 H   0  0  0  0  0  0  0  0  0  0  0  0
    4.5086    2.4521   -1.9824 H   0  0  0  0  0  0  0  0  0  0  0  0
    4.2652    2.4468   -0.2325 H   0  0  0  0  0  0  0  0  0  0  0  0
  1  2  1  0
  2  3  1  0
  3  4  1  0
  4  5  1  0
  5  6  1  0
  6  7  2  0
  7  8  1  0
  8  9  2  0
  9 10  1  0
 10 11  2  0
  9 12  1  0
 12 13  2  0
 13 14  1  0
 14 15  2  0
 15 16  1  0
 16 17  2  0
 17 18  1  0
 18 19  2  0
 19 20  1  0
 20 21  2  0
 19 22  1  0
 22 23  2  0
 23 24  1  0
 24 25  1  0
 24 26  2  0
 26 27  1  0
 27 28  1  0
 27 29  2  0
 26 30  1  0
 30 31  1  0
 31 32  1  0
 32 33  1  0
 33 34  1  0
 34 35  2  0
 34 36  2  0
 34 37  1  0
 37 38  1  0
 38 39  1  0
 39 40  1  0
 40 41  1  0
 41 42  1  0
 42 43  1  0
 43  2  1  0
 42  5  1  0
 11  6  1  0
 21 12  1  0
 29 22  1  0
 38 31  1  0
 20 15  1  0
  1 44  1  0
  1 45  1  0
  1 46  1  0
  3 47  1  0
  3 48  1  0
  4 49  1  0
  4 50  1  0
  7 51  1  0
  8 52  1  0
 10 53  1  0
 13 54  1  0
 16 55  1  0
 17 56  1  0
 18 57  1  0
 23 58  1  0
 29 59  1  0
 30 60  1  0
 30 61  1  0
 32 62  1  0
 32 63  1  0
 33 64  1  0
 33 65  1  0
 37 66  1  0
 37 67  1  0
 38 68  1  0
 39 69  1  0
 39 70  1  0
 41 71  1  0
 41 72  1  0
 42 73  1  0
 43 74  1  0
 43 75  1  0
M  END
>  <candidate_id>  (78) 
CAND_9b2dbc98ed

>  <source_generator>  (78) 
v5_3_model_guided_macrocycle

>  <parent_mol_id>  (78) 
JAK2_52b2cf11d9

>  <canonical_smiles>  (78) 
CN1CCN2c3ccc(cn3)-c3cnc4cccc(c4n3)-c3cc(F)c(c(F)c3)CN3CCS(=O)(=O)CC3CSCC2C1

>  <inchikey>  (78) 
PIFHNMNPLJJTMY-UHFFFAOYSA-N

>  <valid_rdkit>  (78) 
True

>  <unique_flag>  (78) 
True

>  <novel_flag>  (78) 
True

>  <mw>  (78) 
622.767

>  <logp>  (78) 
4.1032

>  <tpsa>  (78) 
82.53

>  <hbd>  (78) 
0

>  <hba>  (78) 
9

>  <rotatable_bonds>  (78) 
0

>  <qed>  (78) 
0.288

>  <sa_score>  (78) 
5.415

>  <murcko_scaffold>  (78) 
O=S1(=O)CCN2Cc3ccc(cc3)-c3cccc4ncc(nc34)-c3ccc(nc3)N3CCNCC3CSCC2C1

>  <max_ring_size>  (78) 
20

>  <has_macrocycle_12_20>  (78) 
True

>  <has_constrained_ring_8_11>  (78) 
False

>  <passes_basic_filters>  (78) 
True

>  <generation_notes>  (78) 
v5_3_model_guided_anchor_pair=3-24;anchor_scores=0.079,0.079;linker_length=3;target_ring=19;linker_prob=0.650;chemotype=thioether

$$$$
CAND_e275a7e3ff
     RDKit          3D

 75 80  0  0  0  0  0  0  0  0999 V2000
    5.5315   -1.1165   -3.2083 C   0  0  0  0  0  0  0  0  0  0  0  0
    4.5431   -1.7276   -2.2687 C   0  0  0  0  0  0  0  0  0  0  0  0
    4.0319   -2.9770   -2.5521 C   0  0  0  0  0  0  0  0  0  0  0  0
    3.0973   -3.5977   -1.8156 N   0  0  0  0  0  0  0  0  0  0  0  0
    2.6096   -2.9298   -0.7626 C   0  0  0  0  0  0  0  0  0  0  0  0
    3.0807   -1.7405   -0.3688 N   0  0  0  0  0  0  0  0  0  0  0  0
    4.0767   -1.1586   -1.0899 C   0  0  0  0  0  0  0  0  0  0  0  0
    4.5890    0.1019   -0.4942 C   0  0  0  0  0  0  0  0  0  0  0  0
    5.9513    0.4526   -0.5186 C   0  0  0  0  0  0  0  0  0  0  0  0
    6.4139    1.6457    0.0439 C   0  0  0  0  0  0  0  0  0  0  0  0
    5.5296    2.4962    0.6973 C   0  0  0  0  0  0  0  0  0  0  0  0
    4.1808    2.1498    0.8106 C   0  0  0  0  0  0  0  0  0  0  0  0
    3.7211    0.9743    0.1910 C   0  0  0  0  0  0  0  0  0  0  0  0
    3.2506    2.9909    1.6429 C   0  0  0  0  0  0  0  0  0  0  0  0
    2.6723    4.0746    0.9210 O   0  0  0  0  0  0  0  0  0  0  0  0
    1.4616    3.7661    0.2236 C   0  0  0  0  0  0  0  0  0  0  0  0
    0.3912    3.3694    1.1971 C   0  0  0  0  0  0  0  0  0  0  0  0
   -0.6643    2.5534    0.9867 C   0  0  0  0  0  0  0  0  0  0  0  0
   -1.4779    2.1087    2.1827 C   0  0  0  0  0  0  0  0  0  0  0  0
   -1.7049    0.7082    2.1147 O   0  0  0  0  0  0  0  0  0  0  0  0
   -0.6867   -0.0979    2.7013 C   0  0  0  0  0  0  0  0  0  0  0  0
   -0.6787   -1.4649    2.0492 C   0  0  0  0  0  0  0  0  0  0  0  0
    0.4572   -1.8925    1.3282 C   0  0  0  0  0  0  0  0  0  0  0  0
    0.5013   -3.1414    0.6955 C   0  0  0  0  0  0  0  0  0  0  0  0
   -0.5910   -4.0063    0.8724 C   0  0  0  0  0  0  0  0  0  0  0  0
   -1.7296   -3.6038    1.5683 C   0  0  0  0  0  0  0  0  0  0  0  0
   -1.7917   -2.3191    2.1010 C   0  0  0  0  0  0  0  0  0  0  0  0
   -2.9618   -1.8647    2.6488 O   0  0  0  0  0  0  0  0  0  0  0  0
   -4.0480   -1.7664    1.6917 C   0  0  0  0  0  0  0  0  0  0  0  0
   -3.6573   -1.1666    0.3223 C   0  0  0  0  0  0  0  0  0  0  0  0
   -4.7227   -0.4062   -0.3515 N   0  0  0  0  0  0  0  0  0  0  0  0
   -5.5774   -1.2445   -1.1891 C   0  0  0  0  0  0  0  0  0  0  0  0
   -6.2744   -0.2096   -2.0500 C   0  0  0  0  0  0  0  0  0  0  0  0
   -5.1816    0.8054   -2.3583 C   0  0  0  0  0  0  0  0  0  0  0  0
   -4.1398    0.6303   -1.2432 C   0  0  0  0  0  0  0  0  0  0  0  0
   -3.8809    1.9298   -0.4517 C   0  0  0  0  0  0  0  0  0  0  0  0
   -2.4697    2.9154   -1.0850 S   0  0  0  0  0  0  0  0  0  0  0  0
   -1.0621    1.9931   -0.3648 C   0  0  0  0  0  0  0  0  0  0  0  0
    1.5361   -3.5636   -0.1451 N   0  0  0  0  0  0  0  0  0  0  0  0
    5.3684   -1.4770   -4.2306 H   0  0  0  0  0  0  0  0  0  0  0  0
    5.4265   -0.0281   -3.2505 H   0  0  0  0  0  0  0  0  0  0  0  0
    6.5530   -1.3800   -2.9188 H   0  0  0  0  0  0  0  0  0  0  0  0
    4.3588   -3.5360   -3.4256 H   0  0  0  0  0  0  0  0  0  0  0  0
    6.6886   -0.2119   -0.9601 H   0  0  0  0  0  0  0  0  0  0  0  0
    7.4705    1.8967   -0.0064 H   0  0  0  0  0  0  0  0  0  0  0  0
    5.9016    3.4117    1.1522 H   0  0  0  0  0  0  0  0  0  0  0  0
    2.6659    0.7149    0.2699 H   0  0  0  0  0  0  0  0  0  0  0  0
    3.8269    3.4352    2.4640 H   0  0  0  0  0  0  0  0  0  0  0  0
    2.5013    2.3593    2.1339 H   0  0  0  0  0  0  0  0  0  0  0  0
    1.1543    4.6801   -0.2941 H   0  0  0  0  0  0  0  0  0  0  0  0
    1.6651    2.9987   -0.5274 H   0  0  0  0  0  0  0  0  0  0  0  0
    0.5412    3.7681    2.2003 H   0  0  0  0  0  0  0  0  0  0  0  0
   -1.0110    2.3663    3.1414 H   0  0  0  0  0  0  0  0  0  0  0  0
   -2.4495    2.6114    2.1665 H   0  0  0  0  0  0  0  0  0  0  0  0
    0.2957    0.3761    2.5876 H   0  0  0  0  0  0  0  0  0  0  0  0
   -0.8854   -0.2009    3.7740 H   0  0  0  0  0  0  0  0  0  0  0  0
    1.3069   -1.2210    1.2443 H   0  0  0  0  0  0  0  0  0  0  0  0
   -0.5830   -4.9976    0.4252 H   0  0  0  0  0  0  0  0  0  0  0  0
   -2.5746   -4.2794    1.6582 H   0  0  0  0  0  0  0  0  0  0  0  0
   -4.7893   -1.1167    2.1715 H   0  0  0  0  0  0  0  0  0  0  0  0
   -4.5219   -2.7479    1.5718 H   0  0  0  0  0  0  0  0  0  0  0  0
   -2.8187   -0.4937    0.4818 H   0  0  0  0  0  0  0  0  0  0  0  0
   -3.2613   -1.9527   -0.3340 H   0  0  0  0  0  0  0  0  0  0  0  0
   -6.2899   -1.8272   -0.5976 H   0  0  0  0  0  0  0  0  0  0  0  0
   -4.9968   -1.9270   -1.8223 H   0  0  0  0  0  0  0  0  0  0  0  0
   -6.7050   -0.6414   -2.9583 H   0  0  0  0  0  0  0  0  0  0  0  0
   -7.0824    0.2739   -1.4869 H   0  0  0  0  0  0  0  0  0  0  0  0
   -5.5965    1.8159   -2.4284 H   0  0  0  0  0  0  0  0  0  0  0  0
   -4.7241    0.5683   -3.3265 H   0  0  0  0  0  0  0  0  0  0  0  0
   -3.2154    0.2509   -1.7004 H   0  0  0  0  0  0  0  0  0  0  0  0
   -3.6992    1.7182    0.6029 H   0  0  0  0  0  0  0  0  0  0  0  0
   -4.7669    2.5744   -0.4715 H   0  0  0  0  0  0  0  0  0  0  0  0
   -1.2664    0.9212   -0.3280 H   0  0  0  0  0  0  0  0  0  0  0  0
   -0.2428    2.1004   -1.0813 H   0  0  0  0  0  0  0  0  0  0  0  0
    1.4295   -4.4739   -0.5695 H   0  0  0  0  0  0  0  0  0  0  0  0
  1  2  1  0
  2  3  2  0
  3  4  1  0
  4  5  2  0
  5  6  1  0
  6  7  2  0
  7  8  1  0
  8  9  2  0
  9 10  1  0
 10 11  2  0
 11 12  1  0
 12 13  2  0
 12 14  1  0
 14 15  1  0
 15 16  1  0
 16 17  1  0
 17 18  2  3
 18 19  1  0
 19 20  1  0
 20 21  1  0
 21 22  1  0
 22 23  2  0
 23 24  1  0
 24 25  2  0
 25 26  1  0
 26 27  2  0
 27 28  1  0
 28 29  1  0
 29 30  1  0
 30 31  1  0
 31 32  1  0
 32 33  1  0
 33 34  1  0
 34 35  1  0
 35 36  1  0
 36 37  1  0
 37 38  1  0
 24 39  1  0
  7  2  1  0
 13  8  1  0
 38 18  1  0
 39  5  1  0
 27 22  1  0
 35 31  1  0
  1 40  1  0
  1 41  1  0
  1 42  1  0
  3 43  1  0
  9 44  1  0
 10 45  1  0
 11 46  1  0
 13 47  1  0
 14 48  1  0
 14 49  1  0
 16 50  1  0
 16 51  1  0
 17 52  1  0
 19 53  1  0
 19 54  1  0
 21 55  1  0
 21 56  1  0
 23 57  1  0
 25 58  1  0
 26 59  1  0
 29 60  1  0
 29 61  1  0
 30 62  1  0
 30 63  1  0
 32 64  1  0
 32 65  1  0
 33 66  1  0
 33 67  1  0
 34 68  1  0
 34 69  1  0
 35 70  1  0
 36 71  1  0
 36 72  1  0
 38 73  1  0
 38 74  1  0
 39 75  1  0
M  END
>  <candidate_id>  (79) 
CAND_e275a7e3ff

>  <source_generator>  (79) 
v5_3_model_guided_macrocycle

>  <parent_mol_id>  (79) 
JAK2_5e05d7987e

>  <canonical_smiles>  (79) 
Cc1cnc2nc1-c1cccc(c1)COCC=C1COCc3cc(ccc3OCCN3CCCC3CSC1)N2

>  <inchikey>  (79) 
SRGJTJXFDGZNNS-UHFFFAOYSA-N

>  <valid_rdkit>  (79) 
True

>  <unique_flag>  (79) 
True

>  <novel_flag>  (79) 
True

>  <mw>  (79) 
544.721

>  <logp>  (79) 
5.7588

>  <tpsa>  (79) 
68.74

>  <hbd>  (79) 
1

>  <hba>  (79) 
8

>  <rotatable_bonds>  (79) 
0

>  <qed>  (79) 
0.3586

>  <sa_score>  (79) 
5.111

>  <murcko_scaffold>  (79) 
C1=C2COCc3cc(ccc3OCCN3CCCC3CSC2)Nc2nccc(n2)-c2cccc(c2)COC1

>  <max_ring_size>  (79) 
18

>  <has_macrocycle_12_20>  (79) 
True

>  <has_constrained_ring_8_11>  (79) 
False

>  <passes_basic_filters>  (79) 
True

>  <generation_notes>  (79) 
v5_3_model_guided_anchor_pair=17-31;anchor_scores=0.312,0.079;linker_length=3;target_ring=13;linker_prob=0.563;chemotype=thioether

$$$$
CAND_d905c29100
     RDKit          3D

 76 81  0  0  0  0  0  0  0  0999 V2000
    6.9938   -0.6080    1.7789 C   0  0  0  0  0  0  0  0  0  0  0  0
    5.6986   -1.3064    1.5271 C   0  0  0  0  0  0  0  0  0  0  0  0
    5.4342   -2.5427    2.0737 C   0  0  0  0  0  0  0  0  0  0  0  0
    4.2932   -3.2289    1.8754 N   0  0  0  0  0  0  0  0  0  0  0  0
    3.3620   -2.6578    1.0971 C   0  0  0  0  0  0  0  0  0  0  0  0
    3.5277   -1.4637    0.5187 N   0  0  0  0  0  0  0  0  0  0  0  0
    4.6911   -0.8059    0.7191 C   0  0  0  0  0  0  0  0  0  0  0  0
    4.7975    0.4645   -0.0112 C   0  0  0  0  0  0  0  0  0  0  0  0
    5.6688    0.5927   -1.1046 C   0  0  0  0  0  0  0  0  0  0  0  0
    5.7736    1.7976   -1.7998 C   0  0  0  0  0  0  0  0  0  0  0  0
    5.0002    2.8923   -1.4177 C   0  0  0  0  0  0  0  0  0  0  0  0
    4.1035    2.7911   -0.3456 C   0  0  0  0  0  0  0  0  0  0  0  0
    4.0182    1.5756    0.3548 C   0  0  0  0  0  0  0  0  0  0  0  0
    3.2872    3.9941    0.0671 C   0  0  0  0  0  0  0  0  0  0  0  0
    1.9570    3.6827    0.4792 O   0  0  0  0  0  0  0  0  0  0  0  0
    1.1250    3.2645   -0.6032 C   0  0  0  0  0  0  0  0  0  0  0  0
   -0.2888    3.3346   -0.1125 C   0  0  0  0  0  0  0  0  0  0  0  0
   -1.1334    2.3030    0.1112 C   0  0  0  0  0  0  0  0  0  0  0  0
   -2.4994    2.5568    0.7173 C   0  0  0  0  0  0  0  0  0  0  0  0
   -3.5895    2.6897   -0.2489 N   0  0  0  0  0  0  0  0  0  0  0  0
   -4.0565    1.4412   -0.8595 C   0  0  0  0  0  0  0  0  0  0  0  0
   -5.2087    0.7081   -0.1240 C   0  0  0  0  0  0  0  0  0  0  0  0
   -4.9338    0.2999    1.3215 C   0  0  0  0  0  0  0  0  0  0  0  0
   -5.8678   -0.8708    1.5959 C   0  0  0  0  0  0  0  0  0  0  0  0
   -6.5227   -1.2001    0.2638 C   0  0  0  0  0  0  0  0  0  0  0  0
   -5.7400   -0.5177   -0.7684 N   0  0  0  0  0  0  0  0  0  0  0  0
   -4.7853   -1.3916   -1.4654 C   0  0  0  0  0  0  0  0  0  0  0  0
   -3.6951   -2.1184   -0.6569 C   0  0  0  0  0  0  0  0  0  0  0  0
   -2.7359   -2.6665   -1.5810 O   0  0  0  0  0  0  0  0  0  0  0  0
   -1.5151   -2.8145   -0.9750 C   0  0  0  0  0  0  0  0  0  0  0  0
   -1.2722   -3.9639   -0.2289 C   0  0  0  0  0  0  0  0  0  0  0  0
   -0.0314   -4.1390    0.3898 C   0  0  0  0  0  0  0  0  0  0  0  0
    0.9933   -3.1879    0.2581 C   0  0  0  0  0  0  0  0  0  0  0  0
    0.7355   -2.0620   -0.5325 C   0  0  0  0  0  0  0  0  0  0  0  0
   -0.5155   -1.8495   -1.1435 C   0  0  0  0  0  0  0  0  0  0  0  0
   -0.7449   -0.6048   -1.9679 C   0  0  0  0  0  0  0  0  0  0  0  0
   -0.2747    0.6110   -1.3778 O   0  0  0  0  0  0  0  0  0  0  0  0
   -0.7292    0.8553   -0.0476 C   0  0  0  0  0  0  0  0  0  0  0  0
    2.1972   -3.4034    0.9358 N   0  0  0  0  0  0  0  0  0  0  0  0
    6.8311    0.4501    2.0085 H   0  0  0  0  0  0  0  0  0  0  0  0
    7.5167   -1.0424    2.6380 H   0  0  0  0  0  0  0  0  0  0  0  0
    7.6493   -0.6935    0.9068 H   0  0  0  0  0  0  0  0  0  0  0  0
    6.1557   -3.0444    2.7134 H   0  0  0  0  0  0  0  0  0  0  0  0
    6.2649   -0.2581   -1.4285 H   0  0  0  0  0  0  0  0  0  0  0  0
    6.4532    1.8796   -2.6441 H   0  0  0  0  0  0  0  0  0  0  0  0
    5.0954    3.8245   -1.9705 H   0  0  0  0  0  0  0  0  0  0  0  0
    3.3229    1.4881    1.1898 H   0  0  0  0  0  0  0  0  0  0  0  0
    3.2495    4.7443   -0.7321 H   0  0  0  0  0  0  0  0  0  0  0  0
    3.7887    4.4632    0.9213 H   0  0  0  0  0  0  0  0  0  0  0  0
    1.2319    3.9462   -1.4550 H   0  0  0  0  0  0  0  0  0  0  0  0
    1.4227    2.2644   -0.9215 H   0  0  0  0  0  0  0  0  0  0  0  0
   -0.6325    4.3468    0.0922 H   0  0  0  0  0  0  0  0  0  0  0  0
   -2.7161    1.8127    1.4882 H   0  0  0  0  0  0  0  0  0  0  0  0
   -2.4653    3.5042    1.2718 H   0  0  0  0  0  0  0  0  0  0  0  0
   -3.2587    3.3099   -0.9895 H   0  0  0  0  0  0  0  0  0  0  0  0
   -4.4410    1.7057   -1.8539 H   0  0  0  0  0  0  0  0  0  0  0  0
   -3.2216    0.7712   -1.0486 H   0  0  0  0  0  0  0  0  0  0  0  0
   -6.0509    1.4158   -0.0995 H   0  0  0  0  0  0  0  0  0  0  0  0
   -5.1269    1.1254    2.0151 H   0  0  0  0  0  0  0  0  0  0  0  0
   -3.9007   -0.0235    1.4748 H   0  0  0  0  0  0  0  0  0  0  0  0
   -6.6190   -0.6110    2.3492 H   0  0  0  0  0  0  0  0  0  0  0  0
   -5.2964   -1.7249    1.9763 H   0  0  0  0  0  0  0  0  0  0  0  0
   -7.5400   -0.7896    0.2519 H   0  0  0  0  0  0  0  0  0  0  0  0
   -6.6224   -2.2794    0.1039 H   0  0  0  0  0  0  0  0  0  0  0  0
   -5.3603   -2.1582   -2.0035 H   0  0  0  0  0  0  0  0  0  0  0  0
   -4.3146   -0.8261   -2.2794 H   0  0  0  0  0  0  0  0  0  0  0  0
   -4.1334   -2.9358   -0.0731 H   0  0  0  0  0  0  0  0  0  0  0  0
   -3.2003   -1.4239    0.0250 H   0  0  0  0  0  0  0  0  0  0  0  0
   -2.0423   -4.7224   -0.1244 H   0  0  0  0  0  0  0  0  0  0  0  0
    0.1295   -5.0362    0.9829 H   0  0  0  0  0  0  0  0  0  0  0  0
    1.5053   -1.3079   -0.6814 H   0  0  0  0  0  0  0  0  0  0  0  0
   -0.2177   -0.7246   -2.9214 H   0  0  0  0  0  0  0  0  0  0  0  0
   -1.7996   -0.4670   -2.2179 H   0  0  0  0  0  0  0  0  0  0  0  0
   -1.5581    0.1972    0.2262 H   0  0  0  0  0  0  0  0  0  0  0  0
    0.0915    0.6339    0.6451 H   0  0  0  0  0  0  0  0  0  0  0  0
    2.2915   -4.2658    1.4507 H   0  0  0  0  0  0  0  0  0  0  0  0
  1  2  1  0
  2  3  2  0
  3  4  1  0
  4  5  2  0
  5  6  1  0
  6  7  2  0
  7  8  1  0
  8  9  2  0
  9 10  1  0
 10 11  2  0
 11 12  1  0
 12 13  2  0
 12 14  1  0
 14 15  1  0
 15 16  1  0
 16 17  1  0
 17 18  2  3
 18 19  1  0
 19 20  1  0
 20 21  1  0
 21 22  1  0
 22 23  1  0
 23 24  1  0
 24 25  1  0
 25 26  1  0
 26 27  1  0
 27 28  1  0
 28 29  1  0
 29 30  1  0
 30 31  2  0
 31 32  1  0
 32 33  2  0
 33 34  1  0
 34 35  2  0
 35 36  1  0
 36 37  1  0
 37 38  1  0
 33 39  1  0
  7  2  1  0
 13  8  1  0
 38 18  1  0
 39  5  1  0
 26 22  1  0
 35 30  1  0
  1 40  1  0
  1 41  1  0
  1 42  1  0
  3 43  1  0
  9 44  1  0
 10 45  1  0
 11 46  1  0
 13 47  1  0
 14 48  1  0
 14 49  1  0
 16 50  1  0
 16 51  1  0
 17 52  1  0
 19 53  1  0
 19 54  1  0
 20 55  1  0
 21 56  1  0
 21 57  1  0
 22 58  1  0
 23 59  1  0
 23 60  1  0
 24 61  1  0
 24 62  1  0
 25 63  1  0
 25 64  1  0
 27 65  1  0
 27 66  1  0
 28 67  1  0
 28 68  1  0
 31 69  1  0
 32 70  1  0
 34 71  1  0
 36 72  1  0
 36 73  1  0
 38 74  1  0
 38 75  1  0
 39 76  1  0
M  END
>  <candidate_id>  (80) 
CAND_d905c29100

>  <source_generator>  (80) 
v5_3_model_guided_macrocycle

>  <parent_mol_id>  (80) 
JAK2_5e05d7987e

>  <canonical_smiles>  (80) 
Cc1cnc2nc1-c1cccc(c1)COCC=C1CNCC3CCCN3CCOc3ccc(cc3COC1)N2

>  <inchikey>  (80) 
YZQDCHKDCNVASZ-UHFFFAOYSA-N

>  <valid_rdkit>  (80) 
True

>  <unique_flag>  (80) 
True

>  <novel_flag>  (80) 
True

>  <mw>  (80) 
527.669

>  <logp>  (80) 
4.6152

>  <tpsa>  (80) 
80.77

>  <hbd>  (80) 
2

>  <hba>  (80) 
8

>  <rotatable_bonds>  (80) 
0

>  <qed>  (80) 
0.4104

>  <sa_score>  (80) 
4.637

>  <murcko_scaffold>  (80) 
C1=C2CNCC3CCCN3CCOc3ccc(cc3COC2)Nc2nccc(n2)-c2cccc(c2)COC1

>  <max_ring_size>  (80) 
18

>  <has_macrocycle_12_20>  (80) 
True

>  <has_constrained_ring_8_11>  (80) 
False

>  <passes_basic_filters>  (80) 
True

>  <generation_notes>  (80) 
v5_3_model_guided_anchor_pair=17-31;anchor_scores=0.312,0.079;linker_length=3;target_ring=13;linker_prob=0.563;chemotype=aza

$$$$
CAND_6e7e0ee6d7
     RDKit          3D

 77 82  0  0  0  0  0  0  0  0999 V2000
    6.9955    2.9015   -0.7777 C   0  0  0  0  0  0  0  0  0  0  0  0
    5.6006    2.8136   -1.3058 C   0  0  0  0  0  0  0  0  0  0  0  0
    5.2076    3.6129   -2.3580 C   0  0  0  0  0  0  0  0  0  0  0  0
    3.9748    3.6075   -2.8922 N   0  0  0  0  0  0  0  0  0  0  0  0
    3.0699    2.7981   -2.3258 C   0  0  0  0  0  0  0  0  0  0  0  0
    3.3578    1.9651   -1.3158 N   0  0  0  0  0  0  0  0  0  0  0  0
    4.6261    1.9410   -0.8404 C   0  0  0  0  0  0  0  0  0  0  0  0
    4.8745    0.8950    0.1735 C   0  0  0  0  0  0  0  0  0  0  0  0
    5.9365   -0.0172    0.0336 C   0  0  0  0  0  0  0  0  0  0  0  0
    6.1809   -1.0025    0.9916 C   0  0  0  0  0  0  0  0  0  0  0  0
    5.3516   -1.1115    2.1035 C   0  0  0  0  0  0  0  0  0  0  0  0
    4.2622   -0.2457    2.2594 C   0  0  0  0  0  0  0  0  0  0  0  0
    4.0330    0.7489    1.2914 C   0  0  0  0  0  0  0  0  0  0  0  0
    3.3245   -0.4100    3.4312 C   0  0  0  0  0  0  0  0  0  0  0  0
    2.0198   -0.8304    3.0375 O   0  0  0  0  0  0  0  0  0  0  0  0
    1.9940   -2.1470    2.4972 C   0  0  0  0  0  0  0  0  0  0  0  0
    0.5771   -2.5997    2.3005 C   0  0  0  0  0  0  0  0  0  0  0  0
   -0.3958   -1.9888    1.5903 C   0  0  0  0  0  0  0  0  0  0  0  0
   -1.7732   -2.6229    1.4759 C   0  0  0  0  0  0  0  0  0  0  0  0
   -2.1608   -2.9722    0.0324 C   0  0  0  0  0  0  0  0  0  0  0  0
   -3.6757   -2.9832   -0.2267 C   0  0  0  0  0  0  0  0  0  0  0  0
   -4.3154   -1.5854   -0.0379 C   0  0  0  0  0  0  0  0  0  0  0  0
   -5.1097   -1.4762    1.2705 C   0  0  0  0  0  0  0  0  0  0  0  0
   -6.5748   -1.6140    0.8841 C   0  0  0  0  0  0  0  0  0  0  0  0
   -6.5624   -1.8896   -0.6073 C   0  0  0  0  0  0  0  0  0  0  0  0
   -5.3020   -1.3267   -1.1130 N   0  0  0  0  0  0  0  0  0  0  0  0
   -5.4377    0.1217   -1.4031 C   0  0  0  0  0  0  0  0  0  0  0  0
   -4.2164    0.7344   -2.1249 C   0  0  0  0  0  0  0  0  0  0  0  0
   -3.2871    1.2603   -1.1697 O   0  0  0  0  0  0  0  0  0  0  0  0
   -2.0535    1.6272   -1.6403 C   0  0  0  0  0  0  0  0  0  0  0  0
   -1.7800    1.9124   -2.9795 C   0  0  0  0  0  0  0  0  0  0  0  0
   -0.4990    2.3182   -3.3740 C   0  0  0  0  0  0  0  0  0  0  0  0
    0.5413    2.4491   -2.4481 C   0  0  0  0  0  0  0  0  0  0  0  0
    0.2648    2.1372   -1.1159 C   0  0  0  0  0  0  0  0  0  0  0  0
   -1.0259    1.7563   -0.6924 C   0  0  0  0  0  0  0  0  0  0  0  0
   -1.2527    1.4992    0.7795 C   0  0  0  0  0  0  0  0  0  0  0  0
   -1.4001    0.1229    1.1107 O   0  0  0  0  0  0  0  0  0  0  0  0
   -0.2216   -0.6525    0.8936 C   0  0  0  0  0  0  0  0  0  0  0  0
    1.8018    2.8505   -2.8947 N   0  0  0  0  0  0  0  0  0  0  0  0
    7.6381    2.1627   -1.2656 H   0  0  0  0  0  0  0  0  0  0  0  0
    7.4199    3.8949   -0.9620 H   0  0  0  0  0  0  0  0  0  0  0  0
    7.0222    2.7499    0.3061 H   0  0  0  0  0  0  0  0  0  0  0  0
    5.8970    4.3117   -2.8251 H   0  0  0  0  0  0  0  0  0  0  0  0
    6.5789    0.0205   -0.8436 H   0  0  0  0  0  0  0  0  0  0  0  0
    7.0097   -1.6934    0.8605 H   0  0  0  0  0  0  0  0  0  0  0  0
    5.5463   -1.8922    2.8354 H   0  0  0  0  0  0  0  0  0  0  0  0
    3.1747    1.4112    1.4035 H   0  0  0  0  0  0  0  0  0  0  0  0
    3.2219    0.5577    3.9357 H   0  0  0  0  0  0  0  0  0  0  0  0
    3.7263   -1.1064    4.1773 H   0  0  0  0  0  0  0  0  0  0  0  0
    2.4881   -2.8359    3.1926 H   0  0  0  0  0  0  0  0  0  0  0  0
    2.5193   -2.1882    1.5368 H   0  0  0  0  0  0  0  0  0  0  0  0
    0.3513   -3.5562    2.7677 H   0  0  0  0  0  0  0  0  0  0  0  0
   -2.4924   -1.9380    1.9339 H   0  0  0  0  0  0  0  0  0  0  0  0
   -1.8336   -3.5394    2.0773 H   0  0  0  0  0  0  0  0  0  0  0  0
   -1.7541   -3.9625   -0.2096 H   0  0  0  0  0  0  0  0  0  0  0  0
   -1.7062   -2.2807   -0.6859 H   0  0  0  0  0  0  0  0  0  0  0  0
   -4.1616   -3.7376    0.4034 H   0  0  0  0  0  0  0  0  0  0  0  0
   -3.8103   -3.3164   -1.2647 H   0  0  0  0  0  0  0  0  0  0  0  0
   -3.5148   -0.8459   -0.0474 H   0  0  0  0  0  0  0  0  0  0  0  0
   -4.9484   -0.4941    1.7314 H   0  0  0  0  0  0  0  0  0  0  0  0
   -4.8272   -2.2328    2.0095 H   0  0  0  0  0  0  0  0  0  0  0  0
   -7.0666   -2.4194    1.4388 H   0  0  0  0  0  0  0  0  0  0  0  0
   -7.1077   -0.6816    1.1037 H   0  0  0  0  0  0  0  0  0  0  0  0
   -7.4517   -1.4977   -1.1129 H   0  0  0  0  0  0  0  0  0  0  0  0
   -6.5580   -2.9729   -0.7814 H   0  0  0  0  0  0  0  0  0  0  0  0
   -5.6686    0.6968   -0.4982 H   0  0  0  0  0  0  0  0  0  0  0  0
   -6.2860    0.2323   -2.0906 H   0  0  0  0  0  0  0  0  0  0  0  0
   -3.7432   -0.0189   -2.7677 H   0  0  0  0  0  0  0  0  0  0  0  0
   -4.5761    1.5632   -2.7468 H   0  0  0  0  0  0  0  0  0  0  0  0
   -2.5459    1.8436   -3.7445 H   0  0  0  0  0  0  0  0  0  0  0  0
   -0.3219    2.5302   -4.4257 H   0  0  0  0  0  0  0  0  0  0  0  0
    1.0536    2.2218   -0.3719 H   0  0  0  0  0  0  0  0  0  0  0  0
   -2.1690    2.0136    1.0923 H   0  0  0  0  0  0  0  0  0  0  0  0
   -0.4510    1.9348    1.3891 H   0  0  0  0  0  0  0  0  0  0  0  0
   -0.0882   -0.8198   -0.1804 H   0  0  0  0  0  0  0  0  0  0  0  0
    0.6482   -0.1029    1.2580 H   0  0  0  0  0  0  0  0  0  0  0  0
    1.8362    3.3912   -3.7456 H   0  0  0  0  0  0  0  0  0  0  0  0
  1  2  1  0
  2  3  2  0
  3  4  1  0
  4  5  2  0
  5  6  1  0
  6  7  2  0
  7  8  1  0
  8  9  2  0
  9 10  1  0
 10 11  2  0
 11 12  1  0
 12 13  2  0
 12 14  1  0
 14 15  1  0
 15 16  1  0
 16 17  1  0
 17 18  2  3
 18 19  1  0
 19 20  1  0
 20 21  1  0
 21 22  1  0
 22 23  1  0
 23 24  1  0
 24 25  1  0
 25 26  1  0
 26 27  1  0
 27 28  1  0
 28 29  1  0
 29 30  1  0
 30 31  2  0
 31 32  1  0
 32 33  2  0
 33 34  1  0
 34 35  2  0
 35 36  1  0
 36 37  1  0
 37 38  1  0
 33 39  1  0
  7  2  1  0
 13  8  1  0
 38 18  1  0
 39  5  1  0
 26 22  1  0
 35 30  1  0
  1 40  1  0
  1 41  1  0
  1 42  1  0
  3 43  1  0
  9 44  1  0
 10 45  1  0
 11 46  1  0
 13 47  1  0
 14 48  1  0
 14 49  1  0
 16 50  1  0
 16 51  1  0
 17 52  1  0
 19 53  1  0
 19 54  1  0
 20 55  1  0
 20 56  1  0
 21 57  1  0
 21 58  1  0
 22 59  1  0
 23 60  1  0
 23 61  1  0
 24 62  1  0
 24 63  1  0
 25 64  1  0
 25 65  1  0
 27 66  1  0
 27 67  1  0
 28 68  1  0
 28 69  1  0
 31 70  1  0
 32 71  1  0
 34 72  1  0
 36 73  1  0
 36 74  1  0
 38 75  1  0
 38 76  1  0
 39 77  1  0
M  END
>  <candidate_id>  (81) 
CAND_6e7e0ee6d7

>  <source_generator>  (81) 
v5_3_model_guided_macrocycle

>  <parent_mol_id>  (81) 
JAK2_5e05d7987e

>  <canonical_smiles>  (81) 
Cc1cnc2nc1-c1cccc(c1)COCC=C1CCCC3CCCN3CCOc3ccc(cc3COC1)N2

>  <inchikey>  (81) 
LZRDJBBIHSOYBR-UHFFFAOYSA-N

>  <valid_rdkit>  (81) 
True

>  <unique_flag>  (81) 
True

>  <novel_flag>  (81) 
True

>  <mw>  (81) 
526.681

>  <logp>  (81) 
6.1959

>  <tpsa>  (81) 
68.74

>  <hbd>  (81) 
1

>  <hba>  (81) 
7

>  <rotatable_bonds>  (81) 
0

>  <qed>  (81) 
0.3501

>  <sa_score>  (81) 
5.23

>  <murcko_scaffold>  (81) 
C1=C2CCCC3CCCN3CCOc3ccc(cc3COC2)Nc2nccc(n2)-c2cccc(c2)COC1

>  <max_ring_size>  (81) 
18

>  <has_macrocycle_12_20>  (81) 
True

>  <has_constrained_ring_8_11>  (81) 
False

>  <passes_basic_filters>  (81) 
True

>  <generation_notes>  (81) 
v5_3_model_guided_anchor_pair=17-31;anchor_scores=0.312,0.079;linker_length=3;target_ring=13;linker_prob=0.563;chemotype=oxa_aza

$$$$
CAND_ce765fd66c
     RDKit          3D

 75 80  0  0  0  0  0  0  0  0999 V2000
   -7.1363    1.3411    1.5840 C   0  0  0  0  0  0  0  0  0  0  0  0
   -5.8720    1.9471    1.0694 C   0  0  0  0  0  0  0  0  0  0  0  0
   -5.7364    3.3163    0.9948 C   0  0  0  0  0  0  0  0  0  0  0  0
   -4.6259    3.9444    0.5718 N   0  0  0  0  0  0  0  0  0  0  0  0
   -3.5894    3.1756    0.2060 C   0  0  0  0  0  0  0  0  0  0  0  0
   -3.6337    1.8404    0.2147 N   0  0  0  0  0  0  0  0  0  0  0  0
   -4.7714    1.2304    0.6225 C   0  0  0  0  0  0  0  0  0  0  0  0
   -4.7135   -0.2420    0.5624 C   0  0  0  0  0  0  0  0  0  0  0  0
   -5.6947   -0.9951   -0.1045 C   0  0  0  0  0  0  0  0  0  0  0  0
   -5.6321   -2.3893   -0.1459 C   0  0  0  0  0  0  0  0  0  0  0  0
   -4.5732   -3.0580    0.4632 C   0  0  0  0  0  0  0  0  0  0  0  0
   -3.5599   -2.3378    1.1068 C   0  0  0  0  0  0  0  0  0  0  0  0
   -3.6415   -0.9368    1.1512 C   0  0  0  0  0  0  0  0  0  0  0  0
   -2.3803   -3.0529    1.7193 C   0  0  0  0  0  0  0  0  0  0  0  0
   -1.1253   -2.6773    1.1504 O   0  0  0  0  0  0  0  0  0  0  0  0
   -1.0481   -2.9359   -0.2501 C   0  0  0  0  0  0  0  0  0  0  0  0
    0.3949   -3.1292   -0.5994 C   0  0  0  0  0  0  0  0  0  0  0  0
    1.0835   -2.5196   -1.5887 C   0  0  0  0  0  0  0  0  0  0  0  0
    0.4779   -1.5115   -2.5405 C   0  0  0  0  0  0  0  0  0  0  0  0
   -0.0117   -0.3433   -1.8824 O   0  0  0  0  0  0  0  0  0  0  0  0
    1.0495    0.5081   -1.4489 C   0  0  0  0  0  0  0  0  0  0  0  0
    0.5994    1.9209   -1.1514 C   0  0  0  0  0  0  0  0  0  0  0  0
   -0.7348    2.2182   -0.8072 C   0  0  0  0  0  0  0  0  0  0  0  0
   -1.1497    3.5295   -0.5314 C   0  0  0  0  0  0  0  0  0  0  0  0
   -0.1902    4.5539   -0.6083 C   0  0  0  0  0  0  0  0  0  0  0  0
    1.1404    4.2817   -0.9201 C   0  0  0  0  0  0  0  0  0  0  0  0
    1.5337    2.9698   -1.1575 C   0  0  0  0  0  0  0  0  0  0  0  0
    2.8598    2.7570   -1.4381 O   0  0  0  0  0  0  0  0  0  0  0  0
    3.5563    2.2720   -0.2754 C   0  0  0  0  0  0  0  0  0  0  0  0
    4.4077    1.0604   -0.6830 C   0  0  0  0  0  0  0  0  0  0  0  0
    4.7583    0.2328    0.4758 N   0  0  0  0  0  0  0  0  0  0  0  0
    5.9101    0.7671    1.2036 C   0  0  0  0  0  0  0  0  0  0  0  0
    6.2792   -0.3801    2.1216 C   0  0  0  0  0  0  0  0  0  0  0  0
    5.8904   -1.6352    1.3511 C   0  0  0  0  0  0  0  0  0  0  0  0
    5.1177   -1.1530    0.1140 C   0  0  0  0  0  0  0  0  0  0  0  0
    3.9112   -2.0781   -0.1700 C   0  0  0  0  0  0  0  0  0  0  0  0
    3.4417   -1.9186   -1.5160 O   0  0  0  0  0  0  0  0  0  0  0  0
    2.5061   -2.9275   -1.8903 C   0  0  0  0  0  0  0  0  0  0  0  0
   -2.4476    3.8835   -0.1495 N   0  0  0  0  0  0  0  0  0  0  0  0
   -6.9320    0.4650    2.2075 H   0  0  0  0  0  0  0  0  0  0  0  0
   -7.6828    2.0510    2.2150 H   0  0  0  0  0  0  0  0  0  0  0  0
   -7.7899    1.0555    0.7545 H   0  0  0  0  0  0  0  0  0  0  0  0
   -6.5418    3.9816    1.2950 H   0  0  0  0  0  0  0  0  0  0  0  0
   -6.5128   -0.4959   -0.6185 H   0  0  0  0  0  0  0  0  0  0  0  0
   -6.4031   -2.9513   -0.6668 H   0  0  0  0  0  0  0  0  0  0  0  0
   -4.5323   -4.1436    0.4119 H   0  0  0  0  0  0  0  0  0  0  0  0
   -2.8417   -0.3735    1.6344 H   0  0  0  0  0  0  0  0  0  0  0  0
   -2.3426   -2.8159    2.7887 H   0  0  0  0  0  0  0  0  0  0  0  0
   -2.4905   -4.1418    1.6465 H   0  0  0  0  0  0  0  0  0  0  0  0
   -1.5771   -3.8642   -0.4981 H   0  0  0  0  0  0  0  0  0  0  0  0
   -1.5125   -2.1113   -0.7961 H   0  0  0  0  0  0  0  0  0  0  0  0
    0.9031   -3.8656    0.0197 H   0  0  0  0  0  0  0  0  0  0  0  0
    1.1744   -1.2282   -3.3390 H   0  0  0  0  0  0  0  0  0  0  0  0
   -0.3759   -1.9780   -3.0467 H   0  0  0  0  0  0  0  0  0  0  0  0
    1.4930    0.0836   -0.5425 H   0  0  0  0  0  0  0  0  0  0  0  0
    1.7976    0.5555   -2.2475 H   0  0  0  0  0  0  0  0  0  0  0  0
   -1.4507    1.4003   -0.7677 H   0  0  0  0  0  0  0  0  0  0  0  0
   -0.4729    5.5840   -0.4058 H   0  0  0  0  0  0  0  0  0  0  0  0
    1.8676    5.0865   -0.9624 H   0  0  0  0  0  0  0  0  0  0  0  0
    2.8670    1.9967    0.5353 H   0  0  0  0  0  0  0  0  0  0  0  0
    4.1981    3.0784    0.0980 H   0  0  0  0  0  0  0  0  0  0  0  0
    5.2945    1.3929   -1.2386 H   0  0  0  0  0  0  0  0  0  0  0  0
    3.8357    0.4765   -1.4060 H   0  0  0  0  0  0  0  0  0  0  0  0
    5.6633    1.6697    1.7710 H   0  0  0  0  0  0  0  0  0  0  0  0
    6.7493    0.9908    0.5328 H   0  0  0  0  0  0  0  0  0  0  0  0
    7.3411   -0.3719    2.3857 H   0  0  0  0  0  0  0  0  0  0  0  0
    5.7013   -0.3259    3.0523 H   0  0  0  0  0  0  0  0  0  0  0  0
    6.7822   -2.1949    1.0472 H   0  0  0  0  0  0  0  0  0  0  0  0
    5.2918   -2.2900    1.9952 H   0  0  0  0  0  0  0  0  0  0  0  0
    5.7945   -1.1500   -0.7517 H   0  0  0  0  0  0  0  0  0  0  0  0
    4.2331   -3.1179   -0.0325 H   0  0  0  0  0  0  0  0  0  0  0  0
    3.0923   -1.8758    0.5304 H   0  0  0  0  0  0  0  0  0  0  0  0
    2.6082   -3.0789   -2.9714 H   0  0  0  0  0  0  0  0  0  0  0  0
    2.7657   -3.8915   -1.4349 H   0  0  0  0  0  0  0  0  0  0  0  0
   -2.6454    4.8689   -0.0645 H   0  0  0  0  0  0  0  0  0  0  0  0
  1  2  1  0
  2  3  2  0
  3  4  1  0
  4  5  2  0
  5  6  1  0
  6  7  2  0
  7  8  1  0
  8  9  2  0
  9 10  1  0
 10 11  2  0
 11 12  1  0
 12 13  2  0
 12 14  1  0
 14 15  1  0
 15 16  1  0
 16 17  1  0
 17 18  2  3
 18 19  1  0
 19 20  1  0
 20 21  1  0
 21 22  1  0
 22 23  2  0
 23 24  1  0
 24 25  2  0
 25 26  1  0
 26 27  2  0
 27 28  1  0
 28 29  1  0
 29 30  1  0
 30 31  1  0
 31 32  1  0
 32 33  1  0
 33 34  1  0
 34 35  1  0
 35 36  1  0
 36 37  1  0
 37 38  1  0
 24 39  1  0
  7  2  1  0
 13  8  1  0
 38 18  1  0
 39  5  1  0
 27 22  1  0
 35 31  1  0
  1 40  1  0
  1 41  1  0
  1 42  1  0
  3 43  1  0
  9 44  1  0
 10 45  1  0
 11 46  1  0
 13 47  1  0
 14 48  1  0
 14 49  1  0
 16 50  1  0
 16 51  1  0
 17 52  1  0
 19 53  1  0
 19 54  1  0
 21 55  1  0
 21 56  1  0
 23 57  1  0
 25 58  1  0
 26 59  1  0
 29 60  1  0
 29 61  1  0
 30 62  1  0
 30 63  1  0
 32 64  1  0
 32 65  1  0
 33 66  1  0
 33 67  1  0
 34 68  1  0
 34 69  1  0
 35 70  1  0
 36 71  1  0
 36 72  1  0
 38 73  1  0
 38 74  1  0
 39 75  1  0
M  END
>  <candidate_id>  (82) 
CAND_ce765fd66c

>  <source_generator>  (82) 
v5_3_model_guided_macrocycle

>  <parent_mol_id>  (82) 
JAK2_5e05d7987e

>  <canonical_smiles>  (82) 
Cc1cnc2nc1-c1cccc(c1)COCC=C1COCc3cc(ccc3OCCN3CCCC3COC1)N2

>  <inchikey>  (82) 
SIKJDUKNEZKELQ-UHFFFAOYSA-N

>  <valid_rdkit>  (82) 
True

>  <unique_flag>  (82) 
True

>  <novel_flag>  (82) 
True

>  <mw>  (82) 
528.653

>  <logp>  (82) 
5.0422

>  <tpsa>  (82) 
77.97

>  <hbd>  (82) 
1

>  <hba>  (82) 
8

>  <rotatable_bonds>  (82) 
0

>  <qed>  (82) 
0.4068

>  <sa_score>  (82) 
4.664

>  <murcko_scaffold>  (82) 
C1=C2COCc3cc(ccc3OCCN3CCCC3COC2)Nc2nccc(n2)-c2cccc(c2)COC1

>  <max_ring_size>  (82) 
18

>  <has_macrocycle_12_20>  (82) 
True

>  <has_constrained_ring_8_11>  (82) 
False

>  <passes_basic_filters>  (82) 
True

>  <generation_notes>  (82) 
v5_3_model_guided_anchor_pair=17-31;anchor_scores=0.312,0.079;linker_length=3;target_ring=13;linker_prob=0.563;chemotype=oxa

$$$$
CAND_a57d09f53c
     RDKit          3D

 75 80  0  0  0  0  0  0  0  0999 V2000
    7.0426   -0.8270    1.3683 C   0  0  0  0  0  0  0  0  0  0  0  0
    5.8819   -1.5511    0.7724 C   0  0  0  0  0  0  0  0  0  0  0  0
    6.0204   -2.8471    0.3049 C   0  0  0  0  0  0  0  0  0  0  0  0
    5.0336   -3.5733   -0.2651 N   0  0  0  0  0  0  0  0  0  0  0  0
    3.8421   -2.9800   -0.3768 C   0  0  0  0  0  0  0  0  0  0  0  0
    3.6150   -1.7420    0.0800 N   0  0  0  0  0  0  0  0  0  0  0  0
    4.6078   -1.0298    0.6529 C   0  0  0  0  0  0  0  0  0  0  0  0
    4.1692    0.3134    1.0910 C   0  0  0  0  0  0  0  0  0  0  0  0
    4.3674    0.7786    2.3990 C   0  0  0  0  0  0  0  0  0  0  0  0
    3.8821    2.0285    2.7997 C   0  0  0  0  0  0  0  0  0  0  0  0
    3.1722    2.8326    1.9059 C   0  0  0  0  0  0  0  0  0  0  0  0
    2.9346    2.3977    0.5990 C   0  0  0  0  0  0  0  0  0  0  0  0
    3.4514    1.1486    0.2057 C   0  0  0  0  0  0  0  0  0  0  0  0
    2.1805    3.2582   -0.3891 C   0  0  0  0  0  0  0  0  0  0  0  0
    0.9735    3.7657    0.1902 O   0  0  0  0  0  0  0  0  0  0  0  0
    0.0624    4.2692   -0.7951 C   0  0  0  0  0  0  0  0  0  0  0  0
   -0.8703    3.1504   -1.2059 C   0  0  0  0  0  0  0  0  0  0  0  0
   -0.6817    2.5404   -2.4010 C   0  0  0  0  0  0  0  0  0  0  0  0
   -1.2771    1.2627   -2.9373 C   0  0  0  0  0  0  0  0  0  0  0  0
   -1.6533    0.3467   -1.9202 O   0  0  0  0  0  0  0  0  0  0  0  0
   -0.5715   -0.1855   -1.1761 C   0  0  0  0  0  0  0  0  0  0  0  0
   -0.2784   -1.6370   -1.4386 C   0  0  0  0  0  0  0  0  0  0  0  0
    1.0603   -2.0224   -1.2541 C   0  0  0  0  0  0  0  0  0  0  0  0
    1.5012   -3.3467   -1.3129 C   0  0  0  0  0  0  0  0  0  0  0  0
    0.5446   -4.3144   -1.6329 C   0  0  0  0  0  0  0  0  0  0  0  0
   -0.7997   -3.9586   -1.8423 C   0  0  0  0  0  0  0  0  0  0  0  0
   -1.2180   -2.6315   -1.7034 C   0  0  0  0  0  0  0  0  0  0  0  0
   -2.5473   -2.3661   -1.8976 O   0  0  0  0  0  0  0  0  0  0  0  0
   -3.2267   -2.0568   -0.6669 C   0  0  0  0  0  0  0  0  0  0  0  0
   -4.3515   -1.0317   -0.9406 C   0  0  0  0  0  0  0  0  0  0  0  0
   -5.0107   -0.4084    0.2186 N   0  0  0  0  0  0  0  0  0  0  0  0
   -5.6343   -1.3699    1.1253 C   0  0  0  0  0  0  0  0  0  0  0  0
   -5.8654   -0.5447    2.3710 C   0  0  0  0  0  0  0  0  0  0  0  0
   -4.5783    0.2510    2.4664 C   0  0  0  0  0  0  0  0  0  0  0  0
   -4.1709    0.5245    1.0038 C   0  0  0  0  0  0  0  0  0  0  0  0
   -4.4450    2.0137    0.6663 C   0  0  0  0  0  0  0  0  0  0  0  0
   -3.5869    2.6982   -0.7996 S   0  0  0  0  0  0  0  0  0  0  0  0
   -1.8871    2.7770   -0.1442 C   0  0  0  0  0  0  0  0  0  0  0  0
    2.8161   -3.7091   -0.9872 N   0  0  0  0  0  0  0  0  0  0  0  0
    7.0180   -0.8999    2.4597 H   0  0  0  0  0  0  0  0  0  0  0  0
    7.0470    0.2275    1.0733 H   0  0  0  0  0  0  0  0  0  0  0  0
    7.9904   -1.2524    1.0203 H   0  0  0  0  0  0  0  0  0  0  0  0
    6.9747   -3.3653    0.3660 H   0  0  0  0  0  0  0  0  0  0  0  0
    4.8748    0.1575    3.1337 H   0  0  0  0  0  0  0  0  0  0  0  0
    4.0410    2.3690    3.8207 H   0  0  0  0  0  0  0  0  0  0  0  0
    2.7879    3.7956    2.2375 H   0  0  0  0  0  0  0  0  0  0  0  0
    3.2777    0.7983   -0.8120 H   0  0  0  0  0  0  0  0  0  0  0  0
    1.9502    2.6649   -1.2806 H   0  0  0  0  0  0  0  0  0  0  0  0
    2.8148    4.0998   -0.6913 H   0  0  0  0  0  0  0  0  0  0  0  0
   -0.5119    5.0832   -0.3387 H   0  0  0  0  0  0  0  0  0  0  0  0
    0.6073    4.7088   -1.6403 H   0  0  0  0  0  0  0  0  0  0  0  0
    0.0703    2.9530   -3.0723 H   0  0  0  0  0  0  0  0  0  0  0  0
   -2.1601    1.4982   -3.5409 H   0  0  0  0  0  0  0  0  0  0  0  0
   -0.5560    0.7700   -3.6011 H   0  0  0  0  0  0  0  0  0  0  0  0
   -0.8312   -0.1130   -0.1138 H   0  0  0  0  0  0  0  0  0  0  0  0
    0.3364    0.4158   -1.3127 H   0  0  0  0  0  0  0  0  0  0  0  0
    1.7691   -1.2316   -1.0363 H   0  0  0  0  0  0  0  0  0  0  0  0
    0.8246   -5.3624   -1.7033 H   0  0  0  0  0  0  0  0  0  0  0  0
   -1.5285   -4.7271   -2.0874 H   0  0  0  0  0  0  0  0  0  0  0  0
   -3.6607   -2.9927   -0.2955 H   0  0  0  0  0  0  0  0  0  0  0  0
   -2.5425   -1.6865    0.1042 H   0  0  0  0  0  0  0  0  0  0  0  0
   -5.1216   -1.5385   -1.5386 H   0  0  0  0  0  0  0  0  0  0  0  0
   -3.9891   -0.2464   -1.6095 H   0  0  0  0  0  0  0  0  0  0  0  0
   -4.9744   -2.2101    1.3691 H   0  0  0  0  0  0  0  0  0  0  0  0
   -6.5715   -1.7641    0.7205 H   0  0  0  0  0  0  0  0  0  0  0  0
   -6.0394   -1.1606    3.2581 H   0  0  0  0  0  0  0  0  0  0  0  0
   -6.7226    0.1277    2.2417 H   0  0  0  0  0  0  0  0  0  0  0  0
   -3.8089   -0.3672    2.9482 H   0  0  0  0  0  0  0  0  0  0  0  0
   -4.7091    1.1518    3.0751 H   0  0  0  0  0  0  0  0  0  0  0  0
   -3.1027    0.3051    0.9169 H   0  0  0  0  0  0  0  0  0  0  0  0
   -5.5205    2.1672    0.5139 H   0  0  0  0  0  0  0  0  0  0  0  0
   -4.1636    2.6522    1.5110 H   0  0  0  0  0  0  0  0  0  0  0  0
   -1.5968    1.8476    0.3446 H   0  0  0  0  0  0  0  0  0  0  0  0
   -1.9034    3.5410    0.6418 H   0  0  0  0  0  0  0  0  0  0  0  0
    3.1254   -4.6404   -1.2154 H   0  0  0  0  0  0  0  0  0  0  0  0
  1  2  1  0
  2  3  2  0
  3  4  1  0
  4  5  2  0
  5  6  1  0
  6  7  2  0
  7  8  1  0
  8  9  2  0
  9 10  1  0
 10 11  2  0
 11 12  1  0
 12 13  2  0
 12 14  1  0
 14 15  1  0
 15 16  1  0
 16 17  1  0
 17 18  2  3
 18 19  1  0
 19 20  1  0
 20 21  1  0
 21 22  1  0
 22 23  2  0
 23 24  1  0
 24 25  2  0
 25 26  1  0
 26 27  2  0
 27 28  1  0
 28 29  1  0
 29 30  1  0
 30 31  1  0
 31 32  1  0
 32 33  1  0
 33 34  1  0
 34 35  1  0
 35 36  1  0
 36 37  1  0
 37 38  1  0
 24 39  1  0
  7  2  1  0
 13  8  1  0
 38 17  1  0
 39  5  1  0
 27 22  1  0
 35 31  1  0
  1 40  1  0
  1 41  1  0
  1 42  1  0
  3 43  1  0
  9 44  1  0
 10 45  1  0
 11 46  1  0
 13 47  1  0
 14 48  1  0
 14 49  1  0
 16 50  1  0
 16 51  1  0
 18 52  1  0
 19 53  1  0
 19 54  1  0
 21 55  1  0
 21 56  1  0
 23 57  1  0
 25 58  1  0
 26 59  1  0
 29 60  1  0
 29 61  1  0
 30 62  1  0
 30 63  1  0
 32 64  1  0
 32 65  1  0
 33 66  1  0
 33 67  1  0
 34 68  1  0
 34 69  1  0
 35 70  1  0
 36 71  1  0
 36 72  1  0
 38 73  1  0
 38 74  1  0
 39 75  1  0
M  END
>  <candidate_id>  (83) 
CAND_a57d09f53c

>  <source_generator>  (83) 
v5_3_model_guided_macrocycle

>  <parent_mol_id>  (83) 
JAK2_5e05d7987e

>  <canonical_smiles>  (83) 
Cc1cnc2nc1-c1cccc(c1)COCC1=CCOCc3cc(ccc3OCCN3CCCC3CSC1)N2

>  <inchikey>  (83) 
BYGZZRJIBQQVLX-UHFFFAOYSA-N

>  <valid_rdkit>  (83) 
True

>  <unique_flag>  (83) 
True

>  <novel_flag>  (83) 
True

>  <mw>  (83) 
544.721

>  <logp>  (83) 
5.7588

>  <tpsa>  (83) 
68.74

>  <hbd>  (83) 
1

>  <hba>  (83) 
8

>  <rotatable_bonds>  (83) 
0

>  <qed>  (83) 
0.3586

>  <sa_score>  (83) 
5.111

>  <murcko_scaffold>  (83) 
C1=C2COCc3cccc(c3)-c3ccnc(n3)Nc3ccc(c(c3)COC1)OCCN1CCCC1CSC2

>  <max_ring_size>  (83) 
18

>  <has_macrocycle_12_20>  (83) 
True

>  <has_constrained_ring_8_11>  (83) 
False

>  <passes_basic_filters>  (83) 
True

>  <generation_notes>  (83) 
v5_3_model_guided_anchor_pair=16-31;anchor_scores=0.312,0.079;linker_length=3;target_ring=14;linker_prob=0.523;chemotype=thioether

$$$$
CAND_28874e6ca5
     RDKit          3D

 77 82  0  0  0  0  0  0  0  0999 V2000
    7.6584   -0.0407    0.1740 C   0  0  0  0  0  0  0  0  0  0  0  0
    6.4548   -0.9091    0.3411 C   0  0  0  0  0  0  0  0  0  0  0  0
    6.6067   -2.2676    0.5576 C   0  0  0  0  0  0  0  0  0  0  0  0
    5.5920   -3.1494    0.6658 N   0  0  0  0  0  0  0  0  0  0  0  0
    4.3570   -2.6490    0.5655 C   0  0  0  0  0  0  0  0  0  0  0  0
    4.1184   -1.3454    0.3998 N   0  0  0  0  0  0  0  0  0  0  0  0
    5.1415   -0.4724    0.2978 C   0  0  0  0  0  0  0  0  0  0  0  0
    4.6847    0.9234    0.1062 C   0  0  0  0  0  0  0  0  0  0  0  0
    5.2534    2.0140    0.7814 C   0  0  0  0  0  0  0  0  0  0  0  0
    4.7630    3.3127    0.6028 C   0  0  0  0  0  0  0  0  0  0  0  0
    3.6793    3.5473   -0.2436 C   0  0  0  0  0  0  0  0  0  0  0  0
    3.0740    2.4869   -0.9233 C   0  0  0  0  0  0  0  0  0  0  0  0
    3.5815    1.1904   -0.7352 C   0  0  0  0  0  0  0  0  0  0  0  0
    1.8699    2.7164   -1.8027 C   0  0  0  0  0  0  0  0  0  0  0  0
    0.7458    3.0198   -0.9792 O   0  0  0  0  0  0  0  0  0  0  0  0
   -0.4568    2.4137   -1.4441 C   0  0  0  0  0  0  0  0  0  0  0  0
   -1.5434    2.5673   -0.4003 C   0  0  0  0  0  0  0  0  0  0  0  0
   -1.3531    2.3185    0.9160 C   0  0  0  0  0  0  0  0  0  0  0  0
   -0.1211    1.7338    1.5492 C   0  0  0  0  0  0  0  0  0  0  0  0
    0.2873    0.5290    0.9073 O   0  0  0  0  0  0  0  0  0  0  0  0
   -0.6137   -0.5624    1.1251 C   0  0  0  0  0  0  0  0  0  0  0  0
   -0.0169   -1.8335    0.5716 C   0  0  0  0  0  0  0  0  0  0  0  0
    1.3184   -2.1539    0.8689 C   0  0  0  0  0  0  0  0  0  0  0  0
    1.9270   -3.3314    0.4151 C   0  0  0  0  0  0  0  0  0  0  0  0
    1.1447   -4.2320   -0.3149 C   0  0  0  0  0  0  0  0  0  0  0  0
   -0.1849   -3.9328   -0.6320 C   0  0  0  0  0  0  0  0  0  0  0  0
   -0.7552   -2.7352   -0.1987 C   0  0  0  0  0  0  0  0  0  0  0  0
   -1.9900   -2.3801   -0.6641 O   0  0  0  0  0  0  0  0  0  0  0  0
   -3.0527   -2.9993    0.0586 C   0  0  0  0  0  0  0  0  0  0  0  0
   -4.3322   -2.1643   -0.1446 C   0  0  0  0  0  0  0  0  0  0  0  0
   -4.2931   -0.9446    0.6905 N   0  0  0  0  0  0  0  0  0  0  0  0
   -5.3790   -0.9319    1.6857 C   0  0  0  0  0  0  0  0  0  0  0  0
   -6.5703   -0.2826    0.9910 C   0  0  0  0  0  0  0  0  0  0  0  0
   -5.9793    0.4802   -0.1941 C   0  0  0  0  0  0  0  0  0  0  0  0
   -4.4629    0.3426   -0.0305 C   0  0  0  0  0  0  0  0  0  0  0  0
   -3.6784    0.5420   -1.3427 C   0  0  0  0  0  0  0  0  0  0  0  0
   -3.6054    1.9989   -1.8396 C   0  0  0  0  0  0  0  0  0  0  0  0
   -2.9073    3.0014   -0.9020 C   0  0  0  0  0  0  0  0  0  0  0  0
    3.3019   -3.5608    0.5529 N   0  0  0  0  0  0  0  0  0  0  0  0
    7.9281    0.4308    1.1237 H   0  0  0  0  0  0  0  0  0  0  0  0
    7.4897    0.7303   -0.5835 H   0  0  0  0  0  0  0  0  0  0  0  0
    8.5193   -0.6252   -0.1699 H   0  0  0  0  0  0  0  0  0  0  0  0
    7.5937   -2.7148    0.6381 H   0  0  0  0  0  0  0  0  0  0  0  0
    6.0653    1.8658    1.4881 H   0  0  0  0  0  0  0  0  0  0  0  0
    5.2130    4.1408    1.1460 H   0  0  0  0  0  0  0  0  0  0  0  0
    3.2854    4.5554   -0.3492 H   0  0  0  0  0  0  0  0  0  0  0  0
    3.0843    0.3544   -1.2298 H   0  0  0  0  0  0  0  0  0  0  0  0
    1.6923    1.8379   -2.4402 H   0  0  0  0  0  0  0  0  0  0  0  0
    2.0552    3.5695   -2.4689 H   0  0  0  0  0  0  0  0  0  0  0  0
   -0.7422    2.9169   -2.3724 H   0  0  0  0  0  0  0  0  0  0  0  0
   -0.3090    1.3479   -1.6553 H   0  0  0  0  0  0  0  0  0  0  0  0
   -2.1746    2.4806    1.6105 H   0  0  0  0  0  0  0  0  0  0  0  0
    0.7041    2.4525    1.5081 H   0  0  0  0  0  0  0  0  0  0  0  0
   -0.3044    1.5364    2.6138 H   0  0  0  0  0  0  0  0  0  0  0  0
   -1.5698   -0.3345    0.6369 H   0  0  0  0  0  0  0  0  0  0  0  0
   -0.7974   -0.7018    2.2064 H   0  0  0  0  0  0  0  0  0  0  0  0
    1.8949   -1.4377    1.4507 H   0  0  0  0  0  0  0  0  0  0  0  0
    1.5840   -5.1473   -0.7016 H   0  0  0  0  0  0  0  0  0  0  0  0
   -0.7537   -4.6119   -1.2582 H   0  0  0  0  0  0  0  0  0  0  0  0
   -3.2127   -3.9978   -0.3560 H   0  0  0  0  0  0  0  0  0  0  0  0
   -2.8207   -3.0989    1.1264 H   0  0  0  0  0  0  0  0  0  0  0  0
   -5.1954   -2.7928    0.1135 H   0  0  0  0  0  0  0  0  0  0  0  0
   -4.4443   -1.9365   -1.2117 H   0  0  0  0  0  0  0  0  0  0  0  0
   -5.0649   -0.3127    2.5355 H   0  0  0  0  0  0  0  0  0  0  0  0
   -5.6155   -1.9185    2.0981 H   0  0  0  0  0  0  0  0  0  0  0  0
   -7.1087    0.3869    1.6737 H   0  0  0  0  0  0  0  0  0  0  0  0
   -7.2779   -1.0416    0.6349 H   0  0  0  0  0  0  0  0  0  0  0  0
   -6.2953    1.5302   -0.1904 H   0  0  0  0  0  0  0  0  0  0  0  0
   -6.3258    0.0284   -1.1322 H   0  0  0  0  0  0  0  0  0  0  0  0
   -4.1337    1.1132    0.6783 H   0  0  0  0  0  0  0  0  0  0  0  0
   -2.6573    0.1609   -1.2329 H   0  0  0  0  0  0  0  0  0  0  0  0
   -4.1338   -0.0496   -2.1494 H   0  0  0  0  0  0  0  0  0  0  0  0
   -4.6204    2.3661   -2.0490 H   0  0  0  0  0  0  0  0  0  0  0  0
   -3.0805    1.9954   -2.8071 H   0  0  0  0  0  0  0  0  0  0  0  0
   -3.5757    3.2106   -0.0578 H   0  0  0  0  0  0  0  0  0  0  0  0
   -2.7998    3.9595   -1.4234 H   0  0  0  0  0  0  0  0  0  0  0  0
    3.6402   -4.5085    0.5238 H   0  0  0  0  0  0  0  0  0  0  0  0
  1  2  1  0
  2  3  2  0
  3  4  1  0
  4  5  2  0
  5  6  1  0
  6  7  2  0
  7  8  1  0
  8  9  2  0
  9 10  1  0
 10 11  2  0
 11 12  1  0
 12 13  2  0
 12 14  1  0
 14 15  1  0
 15 16  1  0
 16 17  1  0
 17 18  2  3
 18 19  1  0
 19 20  1  0
 20 21  1  0
 21 22  1  0
 22 23  2  0
 23 24  1  0
 24 25  2  0
 25 26  1  0
 26 27  2  0
 27 28  1  0
 28 29  1  0
 29 30  1  0
 30 31  1  0
 31 32  1  0
 32 33  1  0
 33 34  1  0
 34 35  1  0
 35 36  1  0
 36 37  1  0
 37 38  1  0
 24 39  1  0
  7  2  1  0
 13  8  1  0
 38 17  1  0
 39  5  1  0
 27 22  1  0
 35 31  1  0
  1 40  1  0
  1 41  1  0
  1 42  1  0
  3 43  1  0
  9 44  1  0
 10 45  1  0
 11 46  1  0
 13 47  1  0
 14 48  1  0
 14 49  1  0
 16 50  1  0
 16 51  1  0
 18 52  1  0
 19 53  1  0
 19 54  1  0
 21 55  1  0
 21 56  1  0
 23 57  1  0
 25 58  1  0
 26 59  1  0
 29 60  1  0
 29 61  1  0
 30 62  1  0
 30 63  1  0
 32 64  1  0
 32 65  1  0
 33 66  1  0
 33 67  1  0
 34 68  1  0
 34 69  1  0
 35 70  1  0
 36 71  1  0
 36 72  1  0
 37 73  1  0
 37 74  1  0
 38 75  1  0
 38 76  1  0
 39 77  1  0
M  END
>  <candidate_id>  (84) 
CAND_28874e6ca5

>  <source_generator>  (84) 
v5_3_model_guided_macrocycle

>  <parent_mol_id>  (84) 
JAK2_5e05d7987e

>  <canonical_smiles>  (84) 
Cc1cnc2nc1-c1cccc(c1)COCC1=CCOCc3cc(ccc3OCCN3CCCC3CCC1)N2

>  <inchikey>  (84) 
OFILVOZDPMYRJM-UHFFFAOYSA-N

>  <valid_rdkit>  (84) 
True

>  <unique_flag>  (84) 
True

>  <novel_flag>  (84) 
True

>  <mw>  (84) 
526.681

>  <logp>  (84) 
6.1959

>  <tpsa>  (84) 
68.74

>  <hbd>  (84) 
1

>  <hba>  (84) 
7

>  <rotatable_bonds>  (84) 
0

>  <qed>  (84) 
0.3501

>  <sa_score>  (84) 
5.23

>  <murcko_scaffold>  (84) 
C1=C2CCCC3CCCN3CCOc3ccc(cc3COC1)Nc1nccc(n1)-c1cccc(c1)COC2

>  <max_ring_size>  (84) 
18

>  <has_macrocycle_12_20>  (84) 
True

>  <has_constrained_ring_8_11>  (84) 
False

>  <passes_basic_filters>  (84) 
True

>  <generation_notes>  (84) 
v5_3_model_guided_anchor_pair=16-31;anchor_scores=0.312,0.079;linker_length=3;target_ring=14;linker_prob=0.523;chemotype=alkyl

$$$$
CAND_3fc0103e7e
     RDKit          3D

 76 81  0  0  0  0  0  0  0  0999 V2000
    7.2176   -0.0828   -1.2868 C   0  0  0  0  0  0  0  0  0  0  0  0
    5.9492   -0.8339   -1.5218 C   0  0  0  0  0  0  0  0  0  0  0  0
    5.9019   -1.8901   -2.4068 C   0  0  0  0  0  0  0  0  0  0  0  0
    4.7914   -2.5980   -2.6851 N   0  0  0  0  0  0  0  0  0  0  0  0
    3.6663   -2.2482   -2.0444 C   0  0  0  0  0  0  0  0  0  0  0  0
    3.6141   -1.2420   -1.1665 N   0  0  0  0  0  0  0  0  0  0  0  0
    4.7461   -0.5516   -0.8973 C   0  0  0  0  0  0  0  0  0  0  0  0
    4.5588    0.5296    0.0833 C   0  0  0  0  0  0  0  0  0  0  0  0
    5.2561    0.5576    1.3012 C   0  0  0  0  0  0  0  0  0  0  0  0
    5.0260    1.5700    2.2367 C   0  0  0  0  0  0  0  0  0  0  0  0
    4.0840    2.5645    1.9758 C   0  0  0  0  0  0  0  0  0  0  0  0
    3.3730    2.5653    0.7715 C   0  0  0  0  0  0  0  0  0  0  0  0
    3.6214    1.5474   -0.1642 C   0  0  0  0  0  0  0  0  0  0  0  0
    2.3037    3.5978    0.5098 C   0  0  0  0  0  0  0  0  0  0  0  0
    1.1109    3.3255    1.2468 O   0  0  0  0  0  0  0  0  0  0  0  0
    0.3621    2.2495    0.6749 C   0  0  0  0  0  0  0  0  0  0  0  0
   -0.8934    2.0595    1.4854 C   0  0  0  0  0  0  0  0  0  0  0  0
   -1.0847    1.0267    2.3381 C   0  0  0  0  0  0  0  0  0  0  0  0
   -0.1403   -0.1092    2.6122 C   0  0  0  0  0  0  0  0  0  0  0  0
    0.1646   -0.8425    1.4286 O   0  0  0  0  0  0  0  0  0  0  0  0
   -0.9046   -1.6782    0.9732 C   0  0  0  0  0  0  0  0  0  0  0  0
   -0.5851   -2.3857   -0.3312 C   0  0  0  0  0  0  0  0  0  0  0  0
    0.7675   -2.3539   -0.7804 C   0  0  0  0  0  0  0  0  0  0  0  0
    1.2213   -3.0266   -1.9214 C   0  0  0  0  0  0  0  0  0  0  0  0
    0.2773   -3.7498   -2.6476 C   0  0  0  0  0  0  0  0  0  0  0  0
   -1.0569   -3.7944   -2.2396 C   0  0  0  0  0  0  0  0  0  0  0  0
   -1.5120   -3.1193   -1.0935 C   0  0  0  0  0  0  0  0  0  0  0  0
   -2.8524   -3.3352   -0.9343 O   0  0  0  0  0  0  0  0  0  0  0  0
   -3.6645   -2.6202   -0.0126 C   0  0  0  0  0  0  0  0  0  0  0  0
   -4.0327   -1.2181   -0.5401 C   0  0  0  0  0  0  0  0  0  0  0  0
   -4.4298   -0.3418    0.5730 N   0  0  0  0  0  0  0  0  0  0  0  0
   -5.8366   -0.5297    0.9563 C   0  0  0  0  0  0  0  0  0  0  0  0
   -6.6346    0.4560    0.1143 C   0  0  0  0  0  0  0  0  0  0  0  0
   -5.6288    1.5030   -0.3508 C   0  0  0  0  0  0  0  0  0  0  0  0
   -4.3113    1.1131    0.3213 C   0  0  0  0  0  0  0  0  0  0  0  0
   -3.0638    1.6257   -0.4462 C   0  0  0  0  0  0  0  0  0  0  0  0
   -2.6058    2.9804   -0.0961 N   0  0  0  0  0  0  0  0  0  0  0  0
   -1.9910    3.0702    1.2384 C   0  0  0  0  0  0  0  0  0  0  0  0
    2.5400   -2.9916   -2.3844 N   0  0  0  0  0  0  0  0  0  0  0  0
    7.9562   -0.3002   -2.0663 H   0  0  0  0  0  0  0  0  0  0  0  0
    7.6573   -0.3602   -0.3235 H   0  0  0  0  0  0  0  0  0  0  0  0
    7.0423    0.9980   -1.3102 H   0  0  0  0  0  0  0  0  0  0  0  0
    6.7863   -2.2109   -2.9517 H   0  0  0  0  0  0  0  0  0  0  0  0
    5.9643   -0.2311    1.5448 H   0  0  0  0  0  0  0  0  0  0  0  0
    5.5647    1.5692    3.1817 H   0  0  0  0  0  0  0  0  0  0  0  0
    3.8866    3.3287    2.7254 H   0  0  0  0  0  0  0  0  0  0  0  0
    3.0483    1.5182   -1.0907 H   0  0  0  0  0  0  0  0  0  0  0  0
    2.0827    3.6928   -0.5608 H   0  0  0  0  0  0  0  0  0  0  0  0
    2.6730    4.5774    0.8340 H   0  0  0  0  0  0  0  0  0  0  0  0
    0.1119    2.4815   -0.3670 H   0  0  0  0  0  0  0  0  0  0  0  0
    0.9709    1.3444    0.6698 H   0  0  0  0  0  0  0  0  0  0  0  0
   -2.0311    0.9574    2.8707 H   0  0  0  0  0  0  0  0  0  0  0  0
    0.7982    0.2858    3.0174 H   0  0  0  0  0  0  0  0  0  0  0  0
   -0.5564   -0.7821    3.3708 H   0  0  0  0  0  0  0  0  0  0  0  0
   -1.7680   -1.0369    0.8274 H   0  0  0  0  0  0  0  0  0  0  0  0
   -1.1073   -2.4316    1.7421 H   0  0  0  0  0  0  0  0  0  0  0  0
    1.4922   -1.7963   -0.1900 H   0  0  0  0  0  0  0  0  0  0  0  0
    0.5652   -4.2884   -3.5467 H   0  0  0  0  0  0  0  0  0  0  0  0
   -1.7643   -4.3713   -2.8339 H   0  0  0  0  0  0  0  0  0  0  0  0
   -4.5900   -3.1993    0.0962 H   0  0  0  0  0  0  0  0  0  0  0  0
   -3.2214   -2.6206    0.9859 H   0  0  0  0  0  0  0  0  0  0  0  0
   -4.8130   -1.2965   -1.3083 H   0  0  0  0  0  0  0  0  0  0  0  0
   -3.1603   -0.8265   -1.0694 H   0  0  0  0  0  0  0  0  0  0  0  0
   -5.9434   -0.2722    2.0177 H   0  0  0  0  0  0  0  0  0  0  0  0
   -6.1969   -1.5583    0.8473 H   0  0  0  0  0  0  0  0  0  0  0  0
   -7.4470    0.9075    0.6935 H   0  0  0  0  0  0  0  0  0  0  0  0
   -7.0791   -0.0438   -0.7549 H   0  0  0  0  0  0  0  0  0  0  0  0
   -5.9416    2.5135   -0.0663 H   0  0  0  0  0  0  0  0  0  0  0  0
   -5.5550    1.4707   -1.4445 H   0  0  0  0  0  0  0  0  0  0  0  0
   -4.3064    1.5672    1.3207 H   0  0  0  0  0  0  0  0  0  0  0  0
   -2.2257    0.9325   -0.3389 H   0  0  0  0  0  0  0  0  0  0  0  0
   -3.2790    1.6259   -1.5221 H   0  0  0  0  0  0  0  0  0  0  0  0
   -3.3870    3.6315   -0.1400 H   0  0  0  0  0  0  0  0  0  0  0  0
   -1.5724    4.0776    1.3521 H   0  0  0  0  0  0  0  0  0  0  0  0
   -2.7693    2.9955    2.0073 H   0  0  0  0  0  0  0  0  0  0  0  0
    2.7897   -3.6481   -3.1090 H   0  0  0  0  0  0  0  0  0  0  0  0
  1  2  1  0
  2  3  2  0
  3  4  1  0
  4  5  2  0
  5  6  1  0
  6  7  2  0
  7  8  1  0
  8  9  2  0
  9 10  1  0
 10 11  2  0
 11 12  1  0
 12 13  2  0
 12 14  1  0
 14 15  1  0
 15 16  1  0
 16 17  1  0
 17 18  2  3
 18 19  1  0
 19 20  1  0
 20 21  1  0
 21 22  1  0
 22 23  2  0
 23 24  1  0
 24 25  2  0
 25 26  1  0
 26 27  2  0
 27 28  1  0
 28 29  1  0
 29 30  1  0
 30 31  1  0
 31 32  1  0
 32 33  1  0
 33 34  1  0
 34 35  1  0
 35 36  1  0
 36 37  1  0
 37 38  1  0
 24 39  1  0
  7  2  1  0
 13  8  1  0
 38 17  1  0
 39  5  1  0
 27 22  1  0
 35 31  1  0
  1 40  1  0
  1 41  1  0
  1 42  1  0
  3 43  1  0
  9 44  1  0
 10 45  1  0
 11 46  1  0
 13 47  1  0
 14 48  1  0
 14 49  1  0
 16 50  1  0
 16 51  1  0
 18 52  1  0
 19 53  1  0
 19 54  1  0
 21 55  1  0
 21 56  1  0
 23 57  1  0
 25 58  1  0
 26 59  1  0
 29 60  1  0
 29 61  1  0
 30 62  1  0
 30 63  1  0
 32 64  1  0
 32 65  1  0
 33 66  1  0
 33 67  1  0
 34 68  1  0
 34 69  1  0
 35 70  1  0
 36 71  1  0
 36 72  1  0
 37 73  1  0
 38 74  1  0
 38 75  1  0
 39 76  1  0
M  END
>  <candidate_id>  (85) 
CAND_3fc0103e7e

>  <source_generator>  (85) 
v5_3_model_guided_macrocycle

>  <parent_mol_id>  (85) 
JAK2_5e05d7987e

>  <canonical_smiles>  (85) 
Cc1cnc2nc1-c1cccc(c1)COCC1=CCOCc3cc(ccc3OCCN3CCCC3CNC1)N2

>  <inchikey>  (85) 
YAKNIGUUIGBJGU-UHFFFAOYSA-N

>  <valid_rdkit>  (85) 
True

>  <unique_flag>  (85) 
True

>  <novel_flag>  (85) 
True

>  <mw>  (85) 
527.669

>  <logp>  (85) 
4.6152

>  <tpsa>  (85) 
80.77

>  <hbd>  (85) 
2

>  <hba>  (85) 
8

>  <rotatable_bonds>  (85) 
0

>  <qed>  (85) 
0.4104

>  <sa_score>  (85) 
4.637

>  <murcko_scaffold>  (85) 
C1=C2CNCC3CCCN3CCOc3ccc(cc3COC1)Nc1nccc(n1)-c1cccc(c1)COC2

>  <max_ring_size>  (85) 
18

>  <has_macrocycle_12_20>  (85) 
True

>  <has_constrained_ring_8_11>  (85) 
False

>  <passes_basic_filters>  (85) 
True

>  <generation_notes>  (85) 
v5_3_model_guided_anchor_pair=16-31;anchor_scores=0.312,0.079;linker_length=3;target_ring=14;linker_prob=0.523;chemotype=aza

$$$$
CAND_4b65fa0278
     RDKit          3D

 75 80  0  0  0  0  0  0  0  0999 V2000
    7.3728    0.5106   -0.6692 C   0  0  0  0  0  0  0  0  0  0  0  0
    6.1339    1.3308   -0.8086 C   0  0  0  0  0  0  0  0  0  0  0  0
    6.2051    2.6538   -1.2102 C   0  0  0  0  0  0  0  0  0  0  0  0
    5.1405    3.4607   -1.4029 N   0  0  0  0  0  0  0  0  0  0  0  0
    3.9404    2.9284   -1.1542 C   0  0  0  0  0  0  0  0  0  0  0  0
    3.7805    1.6692   -0.7330 N   0  0  0  0  0  0  0  0  0  0  0  0
    4.8535    0.8716   -0.5596 C   0  0  0  0  0  0  0  0  0  0  0  0
    4.4854   -0.4973   -0.1444 C   0  0  0  0  0  0  0  0  0  0  0  0
    5.0730   -1.1418    0.9539 C   0  0  0  0  0  0  0  0  0  0  0  0
    4.6541   -2.4171    1.3482 C   0  0  0  0  0  0  0  0  0  0  0  0
    3.6308   -3.0683    0.6582 C   0  0  0  0  0  0  0  0  0  0  0  0
    3.0162   -2.4552   -0.4374 C   0  0  0  0  0  0  0  0  0  0  0  0
    3.4514   -1.1772   -0.8235 C   0  0  0  0  0  0  0  0  0  0  0  0
    1.8871   -3.1375   -1.1735 C   0  0  0  0  0  0  0  0  0  0  0  0
    0.7240   -3.2718   -0.3558 O   0  0  0  0  0  0  0  0  0  0  0  0
   -0.0844   -2.0884   -0.3811 C   0  0  0  0  0  0  0  0  0  0  0  0
   -1.1255   -2.2200    0.7007 C   0  0  0  0  0  0  0  0  0  0  0  0
   -1.0587   -1.6189    1.9093 C   0  0  0  0  0  0  0  0  0  0  0  0
   -0.0332   -0.6430    2.4163 C   0  0  0  0  0  0  0  0  0  0  0  0
    0.3791    0.3035    1.4401 O   0  0  0  0  0  0  0  0  0  0  0  0
   -0.6453    1.2325    1.0857 C   0  0  0  0  0  0  0  0  0  0  0  0
   -0.2375    1.9948   -0.1482 C   0  0  0  0  0  0  0  0  0  0  0  0
    1.0233    2.6105   -0.1904 C   0  0  0  0  0  0  0  0  0  0  0  0
    1.4726    3.3170   -1.3164 C   0  0  0  0  0  0  0  0  0  0  0  0
    0.5976    3.4678   -2.3965 C   0  0  0  0  0  0  0  0  0  0  0  0
   -0.6563    2.8488   -2.3839 C   0  0  0  0  0  0  0  0  0  0  0  0
   -1.0572    2.1006   -1.2755 C   0  0  0  0  0  0  0  0  0  0  0  0
   -2.1602    1.3053   -1.4060 O   0  0  0  0  0  0  0  0  0  0  0  0
   -3.3707    1.9352   -0.9745 C   0  0  0  0  0  0  0  0  0  0  0  0
   -4.3974    0.8178   -0.6811 C   0  0  0  0  0  0  0  0  0  0  0  0
   -4.1762    0.2075    0.6471 N   0  0  0  0  0  0  0  0  0  0  0  0
   -4.8486    0.9723    1.7092 C   0  0  0  0  0  0  0  0  0  0  0  0
   -6.2451    0.3740    1.8400 C   0  0  0  0  0  0  0  0  0  0  0  0
   -6.1867   -0.9583    1.1021 C   0  0  0  0  0  0  0  0  0  0  0  0
   -4.7024   -1.1684    0.8107 C   0  0  0  0  0  0  0  0  0  0  0  0
   -4.4616   -2.2300   -0.2875 C   0  0  0  0  0  0  0  0  0  0  0  0
   -3.0893   -2.4100   -0.6403 O   0  0  0  0  0  0  0  0  0  0  0  0
   -2.3017   -3.0893    0.3389 C   0  0  0  0  0  0  0  0  0  0  0  0
    2.8145    3.7008   -1.4447 N   0  0  0  0  0  0  0  0  0  0  0  0
    7.6772    0.4536    0.3802 H   0  0  0  0  0  0  0  0  0  0  0  0
    7.2247   -0.5003   -1.0622 H   0  0  0  0  0  0  0  0  0  0  0  0
    8.2012    0.9488   -1.2369 H   0  0  0  0  0  0  0  0  0  0  0  0
    7.1627    3.1248   -1.4190 H   0  0  0  0  0  0  0  0  0  0  0  0
    5.8384   -0.6412    1.5409 H   0  0  0  0  0  0  0  0  0  0  0  0
    5.1105   -2.8942    2.2115 H   0  0  0  0  0  0  0  0  0  0  0  0
    3.2943   -4.0481    0.9902 H   0  0  0  0  0  0  0  0  0  0  0  0
    2.9526   -0.6748   -1.6533 H   0  0  0  0  0  0  0  0  0  0  0  0
    1.6437   -2.6303   -2.1155 H   0  0  0  0  0  0  0  0  0  0  0  0
    2.2156   -4.1480   -1.4431 H   0  0  0  0  0  0  0  0  0  0  0  0
   -0.5601   -1.9977   -1.3647 H   0  0  0  0  0  0  0  0  0  0  0  0
    0.5466   -1.2106   -0.2536 H   0  0  0  0  0  0  0  0  0  0  0  0
   -1.8574   -1.8107    2.6222 H   0  0  0  0  0  0  0  0  0  0  0  0
    0.8505   -1.1947    2.7537 H   0  0  0  0  0  0  0  0  0  0  0  0
   -0.4276   -0.1054    3.2868 H   0  0  0  0  0  0  0  0  0  0  0  0
   -1.5867    0.7109    0.9194 H   0  0  0  0  0  0  0  0  0  0  0  0
   -0.7924    1.9382    1.9117 H   0  0  0  0  0  0  0  0  0  0  0  0
    1.6942    2.4772    0.6578 H   0  0  0  0  0  0  0  0  0  0  0  0
    0.9216    3.9840   -3.2957 H   0  0  0  0  0  0  0  0  0  0  0  0
   -1.2865    2.8883   -3.2674 H   0  0  0  0  0  0  0  0  0  0  0  0
   -3.7435    2.5552   -1.7983 H   0  0  0  0  0  0  0  0  0  0  0  0
   -3.2140    2.5786   -0.0999 H   0  0  0  0  0  0  0  0  0  0  0  0
   -5.4147    1.2195   -0.7625 H   0  0  0  0  0  0  0  0  0  0  0  0
   -4.2811    0.0716   -1.4729 H   0  0  0  0  0  0  0  0  0  0  0  0
   -4.2978    0.8232    2.6465 H   0  0  0  0  0  0  0  0  0  0  0  0
   -4.8757    2.0530    1.5327 H   0  0  0  0  0  0  0  0  0  0  0  0
   -6.5116    0.2335    2.8929 H   0  0  0  0  0  0  0  0  0  0  0  0
   -7.0005    1.0233    1.3840 H   0  0  0  0  0  0  0  0  0  0  0  0
   -6.6040   -1.7708    1.7059 H   0  0  0  0  0  0  0  0  0  0  0  0
   -6.7703   -0.8933    0.1758 H   0  0  0  0  0  0  0  0  0  0  0  0
   -4.2346   -1.5545    1.7265 H   0  0  0  0  0  0  0  0  0  0  0  0
   -4.8809   -3.1955    0.0231 H   0  0  0  0  0  0  0  0  0  0  0  0
   -4.9936   -1.9555   -1.2047 H   0  0  0  0  0  0  0  0  0  0  0  0
   -2.8942   -3.3622    1.2202 H   0  0  0  0  0  0  0  0  0  0  0  0
   -1.9516   -4.0289   -0.1028 H   0  0  0  0  0  0  0  0  0  0  0  0
    3.0477    4.5120   -1.9915 H   0  0  0  0  0  0  0  0  0  0  0  0
  1  2  1  0
  2  3  2  0
  3  4  1  0
  4  5  2  0
  5  6  1  0
  6  7  2  0
  7  8  1  0
  8  9  2  0
  9 10  1  0
 10 11  2  0
 11 12  1  0
 12 13  2  0
 12 14  1  0
 14 15  1  0
 15 16  1  0
 16 17  1  0
 17 18  2  3
 18 19  1  0
 19 20  1  0
 20 21  1  0
 21 22  1  0
 22 23  2  0
 23 24  1  0
 24 25  2  0
 25 26  1  0
 26 27  2  0
 27 28  1  0
 28 29  1  0
 29 30  1  0
 30 31  1  0
 31 32  1  0
 32 33  1  0
 33 34  1  0
 34 35  1  0
 35 36  1  0
 36 37  1  0
 37 38  1  0
 24 39  1  0
  7  2  1  0
 13  8  1  0
 38 17  1  0
 39  5  1  0
 27 22  1  0
 35 31  1  0
  1 40  1  0
  1 41  1  0
  1 42  1  0
  3 43  1  0
  9 44  1  0
 10 45  1  0
 11 46  1  0
 13 47  1  0
 14 48  1  0
 14 49  1  0
 16 50  1  0
 16 51  1  0
 18 52  1  0
 19 53  1  0
 19 54  1  0
 21 55  1  0
 21 56  1  0
 23 57  1  0
 25 58  1  0
 26 59  1  0
 29 60  1  0
 29 61  1  0
 30 62  1  0
 30 63  1  0
 32 64  1  0
 32 65  1  0
 33 66  1  0
 33 67  1  0
 34 68  1  0
 34 69  1  0
 35 70  1  0
 36 71  1  0
 36 72  1  0
 38 73  1  0
 38 74  1  0
 39 75  1  0
M  END
>  <candidate_id>  (86) 
CAND_4b65fa0278

>  <source_generator>  (86) 
v5_3_model_guided_macrocycle

>  <parent_mol_id>  (86) 
JAK2_5e05d7987e

>  <canonical_smiles>  (86) 
Cc1cnc2nc1-c1cccc(c1)COCC1=CCOCc3cc(ccc3OCCN3CCCC3COC1)N2

>  <inchikey>  (86) 
GMOUVWABVBSNRU-UHFFFAOYSA-N

>  <valid_rdkit>  (86) 
True

>  <unique_flag>  (86) 
True

>  <novel_flag>  (86) 
True

>  <mw>  (86) 
528.653

>  <logp>  (86) 
5.0422

>  <tpsa>  (86) 
77.97

>  <hbd>  (86) 
1

>  <hba>  (86) 
8

>  <rotatable_bonds>  (86) 
0

>  <qed>  (86) 
0.4068

>  <sa_score>  (86) 
4.664

>  <murcko_scaffold>  (86) 
C1=C2COCc3cccc(c3)-c3ccnc(n3)Nc3ccc(c(c3)COC1)OCCN1CCCC1COC2

>  <max_ring_size>  (86) 
18

>  <has_macrocycle_12_20>  (86) 
True

>  <has_constrained_ring_8_11>  (86) 
False

>  <passes_basic_filters>  (86) 
True

>  <generation_notes>  (86) 
v5_3_model_guided_anchor_pair=16-31;anchor_scores=0.312,0.079;linker_length=3;target_ring=14;linker_prob=0.523;chemotype=oxa

$$$$
CAND_61168e1ccf
     RDKit          3D

 75 80  0  0  0  0  0  0  0  0999 V2000
    7.0103   -0.5538   -1.4523 C   0  0  0  0  0  0  0  0  0  0  0  0
    5.7721   -1.3754   -1.2984 C   0  0  0  0  0  0  0  0  0  0  0  0
    5.6446   -2.5459   -2.0245 C   0  0  0  0  0  0  0  0  0  0  0  0
    4.5587   -3.3383   -2.0144 N   0  0  0  0  0  0  0  0  0  0  0  0
    3.5266   -2.9260   -1.2728 C   0  0  0  0  0  0  0  0  0  0  0  0
    3.5812   -1.8433   -0.4831 N   0  0  0  0  0  0  0  0  0  0  0  0
    4.7026   -1.0848   -0.4625 C   0  0  0  0  0  0  0  0  0  0  0  0
    4.6419    0.0371    0.5124 C   0  0  0  0  0  0  0  0  0  0  0  0
    5.7561    0.4348    1.2712 C   0  0  0  0  0  0  0  0  0  0  0  0
    5.6806    1.4858    2.1884 C   0  0  0  0  0  0  0  0  0  0  0  0
    4.4738    2.1470    2.3947 C   0  0  0  0  0  0  0  0  0  0  0  0
    3.3234    1.7626    1.6947 C   0  0  0  0  0  0  0  0  0  0  0  0
    3.4241    0.7089    0.7684 C   0  0  0  0  0  0  0  0  0  0  0  0
    2.0096    2.4260    2.0480 C   0  0  0  0  0  0  0  0  0  0  0  0
    0.9402    2.2092    1.1327 O   0  0  0  0  0  0  0  0  0  0  0  0
    1.0089    3.0088   -0.0387 C   0  0  0  0  0  0  0  0  0  0  0  0
   -0.3996    3.2929   -0.4701 C   0  0  0  0  0  0  0  0  0  0  0  0
   -1.1527    2.6234   -1.3721 C   0  0  0  0  0  0  0  0  0  0  0  0
   -0.6885    1.3915   -2.1164 C   0  0  0  0  0  0  0  0  0  0  0  0
   -1.4306    0.2323   -1.7606 O   0  0  0  0  0  0  0  0  0  0  0  0
   -1.1057   -0.2851   -0.4724 C   0  0  0  0  0  0  0  0  0  0  0  0
   -0.7382   -1.7382   -0.6039 C   0  0  0  0  0  0  0  0  0  0  0  0
    0.5952   -2.0574   -0.9133 C   0  0  0  0  0  0  0  0  0  0  0  0
    1.0312   -3.3748   -1.0920 C   0  0  0  0  0  0  0  0  0  0  0  0
    0.0871   -4.3978   -0.9483 C   0  0  0  0  0  0  0  0  0  0  0  0
   -1.2486   -4.1061   -0.6485 C   0  0  0  0  0  0  0  0  0  0  0  0
   -1.6533   -2.7832   -0.4631 C   0  0  0  0  0  0  0  0  0  0  0  0
   -2.9769   -2.5398   -0.2076 O   0  0  0  0  0  0  0  0  0  0  0  0
   -3.2203   -2.5346    1.2054 C   0  0  0  0  0  0  0  0  0  0  0  0
   -4.6130   -1.9511    1.5120 C   0  0  0  0  0  0  0  0  0  0  0  0
   -4.6740   -0.4911    1.3478 N   0  0  0  0  0  0  0  0  0  0  0  0
   -5.8031    0.1130    2.0522 C   0  0  0  0  0  0  0  0  0  0  0  0
   -5.8268    1.5265    1.4852 C   0  0  0  0  0  0  0  0  0  0  0  0
   -5.2225    1.4056    0.0795 C   0  0  0  0  0  0  0  0  0  0  0  0
   -3.9990    2.3126   -0.0932 C   0  0  0  0  0  0  0  0  0  0  0  0
   -3.5802    2.2566   -1.4571 O   0  0  0  0  0  0  0  0  0  0  0  0
   -2.5182    3.1518   -1.7629 C   0  0  0  0  0  0  0  0  0  0  0  0
   -4.8702   -0.0782   -0.0515 C   0  0  0  0  0  0  0  0  0  0  0  0
    2.3668   -3.6915   -1.3639 N   0  0  0  0  0  0  0  0  0  0  0  0
    7.7590   -0.8424   -0.7088 H   0  0  0  0  0  0  0  0  0  0  0  0
    7.4504   -0.6966   -2.4460 H   0  0  0  0  0  0  0  0  0  0  0  0
    6.7952    0.5157   -1.3660 H   0  0  0  0  0  0  0  0  0  0  0  0
    6.4416   -2.8910   -2.6791 H   0  0  0  0  0  0  0  0  0  0  0  0
    6.7023   -0.0920    1.1862 H   0  0  0  0  0  0  0  0  0  0  0  0
    6.5600    1.7693    2.7613 H   0  0  0  0  0  0  0  0  0  0  0  0
    4.4274    2.9438    3.1343 H   0  0  0  0  0  0  0  0  0  0  0  0
    2.5247    0.3807    0.2492 H   0  0  0  0  0  0  0  0  0  0  0  0
    1.6824    2.0031    3.0052 H   0  0  0  0  0  0  0  0  0  0  0  0
    2.1495    3.5026    2.2055 H   0  0  0  0  0  0  0  0  0  0  0  0
    1.5075    3.9667    0.1529 H   0  0  0  0  0  0  0  0  0  0  0  0
    1.5865    2.4889   -0.8068 H   0  0  0  0  0  0  0  0  0  0  0  0
   -0.8333    4.1636    0.0192 H   0  0  0  0  0  0  0  0  0  0  0  0
   -0.8397    1.5549   -3.1898 H   0  0  0  0  0  0  0  0  0  0  0  0
    0.3801    1.1867   -1.9996 H   0  0  0  0  0  0  0  0  0  0  0  0
   -1.9568   -0.1465    0.1954 H   0  0  0  0  0  0  0  0  0  0  0  0
   -0.2699    0.2478   -0.0074 H   0  0  0  0  0  0  0  0  0  0  0  0
    1.2944   -1.2376   -1.0490 H   0  0  0  0  0  0  0  0  0  0  0  0
    0.3823   -5.4363   -1.0707 H   0  0  0  0  0  0  0  0  0  0  0  0
   -1.9726   -4.9109   -0.5627 H   0  0  0  0  0  0  0  0  0  0  0  0
   -3.1930   -3.5709    1.5655 H   0  0  0  0  0  0  0  0  0  0  0  0
   -2.4542   -1.9649    1.7485 H   0  0  0  0  0  0  0  0  0  0  0  0
   -5.3792   -2.4493    0.9051 H   0  0  0  0  0  0  0  0  0  0  0  0
   -4.8235   -2.1900    2.5623 H   0  0  0  0  0  0  0  0  0  0  0  0
   -5.6584    0.1211    3.1371 H   0  0  0  0  0  0  0  0  0  0  0  0
   -6.7462   -0.4017    1.8276 H   0  0  0  0  0  0  0  0  0  0  0  0
   -6.8496    1.9159    1.4467 H   0  0  0  0  0  0  0  0  0  0  0  0
   -5.2377    2.2016    2.1173 H   0  0  0  0  0  0  0  0  0  0  0  0
   -5.9679    1.6649   -0.6826 H   0  0  0  0  0  0  0  0  0  0  0  0
   -3.1797    2.0027    0.5648 H   0  0  0  0  0  0  0  0  0  0  0  0
   -4.2748    3.3450    0.1528 H   0  0  0  0  0  0  0  0  0  0  0  0
   -2.5292    3.3005   -2.8492 H   0  0  0  0  0  0  0  0  0  0  0  0
   -2.7233    4.1370   -1.3259 H   0  0  0  0  0  0  0  0  0  0  0  0
   -5.7170   -0.6136   -0.5020 H   0  0  0  0  0  0  0  0  0  0  0  0
   -3.9979   -0.2473   -0.6833 H   0  0  0  0  0  0  0  0  0  0  0  0
    2.5472   -4.5516   -1.8571 H   0  0  0  0  0  0  0  0  0  0  0  0
  1  2  1  0
  2  3  2  0
  3  4  1  0
  4  5  2  0
  5  6  1  0
  6  7  2  0
  7  8  1  0
  8  9  2  0
  9 10  1  0
 10 11  2  0
 11 12  1  0
 12 13  2  0
 12 14  1  0
 14 15  1  0
 15 16  1  0
 16 17  1  0
 17 18  2  3
 18 19  1  0
 19 20  1  0
 20 21  1  0
 21 22  1  0
 22 23  2  0
 23 24  1  0
 24 25  2  0
 25 26  1  0
 26 27  2  0
 27 28  1  0
 28 29  1  0
 29 30  1  0
 30 31  1  0
 31 32  1  0
 32 33  1  0
 33 34  1  0
 34 35  1  0
 35 36  1  0
 36 37  1  0
 34 38  1  0
 24 39  1  0
  7  2  1  0
 13  8  1  0
 37 18  1  0
 39  5  1  0
 27 22  1  0
 38 31  1  0
  1 40  1  0
  1 41  1  0
  1 42  1  0
  3 43  1  0
  9 44  1  0
 10 45  1  0
 11 46  1  0
 13 47  1  0
 14 48  1  0
 14 49  1  0
 16 50  1  0
 16 51  1  0
 17 52  1  0
 19 53  1  0
 19 54  1  0
 21 55  1  0
 21 56  1  0
 23 57  1  0
 25 58  1  0
 26 59  1  0
 29 60  1  0
 29 61  1  0
 30 62  1  0
 30 63  1  0
 32 64  1  0
 32 65  1  0
 33 66  1  0
 33 67  1  0
 34 68  1  0
 35 69  1  0
 35 70  1  0
 37 71  1  0
 37 72  1  0
 38 73  1  0
 38 74  1  0
 39 75  1  0
M  END
>  <candidate_id>  (87) 
CAND_61168e1ccf

>  <source_generator>  (87) 
v5_3_model_guided_macrocycle

>  <parent_mol_id>  (87) 
JAK2_5e05d7987e

>  <canonical_smiles>  (87) 
Cc1cnc2nc1-c1cccc(c1)COCC=C1COCc3cc(ccc3OCCN3CCC(COC1)C3)N2

>  <inchikey>  (87) 
QYOOWLVECWBYGQ-UHFFFAOYSA-N

>  <valid_rdkit>  (87) 
True

>  <unique_flag>  (87) 
True

>  <novel_flag>  (87) 
True

>  <mw>  (87) 
528.653

>  <logp>  (87) 
4.8997

>  <tpsa>  (87) 
77.97

>  <hbd>  (87) 
1

>  <hba>  (87) 
8

>  <rotatable_bonds>  (87) 
0

>  <qed>  (87) 
0.4131

>  <sa_score>  (87) 
4.893

>  <murcko_scaffold>  (87) 
C1=C2COCc3cc(ccc3OCCN3CCC(COC2)C3)Nc2nccc(n2)-c2cccc(c2)COC1

>  <max_ring_size>  (87) 
18

>  <has_macrocycle_12_20>  (87) 
True

>  <has_constrained_ring_8_11>  (87) 
False

>  <passes_basic_filters>  (87) 
True

>  <generation_notes>  (87) 
v5_3_model_guided_anchor_pair=17-32;anchor_scores=0.312,0.079;linker_length=3;target_ring=14;linker_prob=0.523;chemotype=oxa

$$$$
CAND_1f4eb01ec0
     RDKit          3D

 77 82  0  0  0  0  0  0  0  0999 V2000
    7.5967    1.0367    0.3213 C   0  0  0  0  0  0  0  0  0  0  0  0
    6.2518    1.6845    0.2781 C   0  0  0  0  0  0  0  0  0  0  0  0
    6.1193    3.0465    0.4268 C   0  0  0  0  0  0  0  0  0  0  0  0
    4.9413    3.6936    0.4197 N   0  0  0  0  0  0  0  0  0  0  0  0
    3.8340    2.9545    0.2489 C   0  0  0  0  0  0  0  0  0  0  0  0
    3.8586    1.6301    0.0677 N   0  0  0  0  0  0  0  0  0  0  0  0
    5.0591    1.0052    0.0778 C   0  0  0  0  0  0  0  0  0  0  0  0
    4.9840   -0.4512   -0.1126 C   0  0  0  0  0  0  0  0  0  0  0  0
    5.5933   -1.0777   -1.2119 C   0  0  0  0  0  0  0  0  0  0  0  0
    5.5420   -2.4637   -1.3677 C   0  0  0  0  0  0  0  0  0  0  0  0
    4.8704   -3.2464   -0.4307 C   0  0  0  0  0  0  0  0  0  0  0  0
    4.2307   -2.6495    0.6630 C   0  0  0  0  0  0  0  0  0  0  0  0
    4.2929   -1.2548    0.8105 C   0  0  0  0  0  0  0  0  0  0  0  0
    3.4771   -3.4928    1.6643 C   0  0  0  0  0  0  0  0  0  0  0  0
    2.1105   -3.1117    1.8239 O   0  0  0  0  0  0  0  0  0  0  0  0
    1.3665   -3.1900    0.6097 C   0  0  0  0  0  0  0  0  0  0  0  0
   -0.0689   -3.4462    0.9527 C   0  0  0  0  0  0  0  0  0  0  0  0
   -1.1536   -2.8385    0.4219 C   0  0  0  0  0  0  0  0  0  0  0  0
   -2.5445   -3.2941    0.8368 C   0  0  0  0  0  0  0  0  0  0  0  0
   -3.5478   -2.1887    1.1994 C   0  0  0  0  0  0  0  0  0  0  0  0
   -4.5699   -1.9443    0.0762 C   0  0  0  0  0  0  0  0  0  0  0  0
   -5.5210   -0.7742    0.3717 C   0  0  0  0  0  0  0  0  0  0  0  0
   -6.6257   -0.6688   -0.6914 C   0  0  0  0  0  0  0  0  0  0  0  0
   -6.6024    0.7835   -1.1444 C   0  0  0  0  0  0  0  0  0  0  0  0
   -5.1890    1.1329   -1.0000 N   0  0  0  0  0  0  0  0  0  0  0  0
   -4.9608    2.5861   -1.0954 C   0  0  0  0  0  0  0  0  0  0  0  0
   -3.4727    2.9841   -1.1826 C   0  0  0  0  0  0  0  0  0  0  0  0
   -2.8192    2.6509    0.0464 O   0  0  0  0  0  0  0  0  0  0  0  0
   -1.4715    2.8641   -0.0040 C   0  0  0  0  0  0  0  0  0  0  0  0
   -1.0128    4.0802    0.4960 C   0  0  0  0  0  0  0  0  0  0  0  0
    0.3561    4.3308    0.5688 C   0  0  0  0  0  0  0  0  0  0  0  0
    1.2952    3.3656    0.1752 C   0  0  0  0  0  0  0  0  0  0  0  0
    0.8121    2.1371   -0.2957 C   0  0  0  0  0  0  0  0  0  0  0  0
   -0.5716    1.8717   -0.4121 C   0  0  0  0  0  0  0  0  0  0  0  0
   -1.0148    0.5471   -0.9849 C   0  0  0  0  0  0  0  0  0  0  0  0
   -0.9060   -0.5021   -0.0258 O   0  0  0  0  0  0  0  0  0  0  0  0
   -1.0521   -1.7777   -0.6465 C   0  0  0  0  0  0  0  0  0  0  0  0
    2.6498    3.6786    0.3145 N   0  0  0  0  0  0  0  0  0  0  0  0
   -4.8221    0.5878    0.3169 C   0  0  0  0  0  0  0  0  0  0  0  0
    8.3393    1.6990    0.7801 H   0  0  0  0  0  0  0  0  0  0  0  0
    7.9389    0.7983   -0.6903 H   0  0  0  0  0  0  0  0  0  0  0  0
    7.5753    0.1230    0.9240 H   0  0  0  0  0  0  0  0  0  0  0  0
    6.9845    3.6876    0.5741 H   0  0  0  0  0  0  0  0  0  0  0  0
    6.1080   -0.4822   -1.9630 H   0  0  0  0  0  0  0  0  0  0  0  0
    6.0213   -2.9315   -2.2239 H   0  0  0  0  0  0  0  0  0  0  0  0
    4.8365   -4.3249   -0.5685 H   0  0  0  0  0  0  0  0  0  0  0  0
    3.7830   -0.7847    1.6525 H   0  0  0  0  0  0  0  0  0  0  0  0
    3.5176   -4.5569    1.4013 H   0  0  0  0  0  0  0  0  0  0  0  0
    3.9643   -3.3943    2.6410 H   0  0  0  0  0  0  0  0  0  0  0  0
    1.5058   -2.2570    0.0580 H   0  0  0  0  0  0  0  0  0  0  0  0
    1.7181   -4.0280   -0.0043 H   0  0  0  0  0  0  0  0  0  0  0  0
   -0.2121   -4.2241    1.7000 H   0  0  0  0  0  0  0  0  0  0  0  0
   -2.4585   -3.9515    1.7126 H   0  0  0  0  0  0  0  0  0  0  0  0
   -2.9503   -3.9241    0.0348 H   0  0  0  0  0  0  0  0  0  0  0  0
   -3.0241   -1.2711    1.4831 H   0  0  0  0  0  0  0  0  0  0  0  0
   -4.1060   -2.5061    2.0899 H   0  0  0  0  0  0  0  0  0  0  0  0
   -4.0583   -1.7645   -0.8749 H   0  0  0  0  0  0  0  0  0  0  0  0
   -5.1622   -2.8591   -0.0562 H   0  0  0  0  0  0  0  0  0  0  0  0
   -5.9749   -0.9181    1.3601 H   0  0  0  0  0  0  0  0  0  0  0  0
   -6.4253   -1.3316   -1.5422 H   0  0  0  0  0  0  0  0  0  0  0  0
   -7.6037   -0.9422   -0.2816 H   0  0  0  0  0  0  0  0  0  0  0  0
   -6.9504    0.8864   -2.1770 H   0  0  0  0  0  0  0  0  0  0  0  0
   -7.2429    1.3931   -0.4941 H   0  0  0  0  0  0  0  0  0  0  0  0
   -5.4441    2.9556   -2.0085 H   0  0  0  0  0  0  0  0  0  0  0  0
   -5.4285    3.1025   -0.2472 H   0  0  0  0  0  0  0  0  0  0  0  0
   -3.4090    4.0680   -1.3410 H   0  0  0  0  0  0  0  0  0  0  0  0
   -3.0032    2.4836   -2.0378 H   0  0  0  0  0  0  0  0  0  0  0  0
   -1.7199    4.8259    0.8468 H   0  0  0  0  0  0  0  0  0  0  0  0
    0.6869    5.2866    0.9673 H   0  0  0  0  0  0  0  0  0  0  0  0
    1.5117    1.3581   -0.5908 H   0  0  0  0  0  0  0  0  0  0  0  0
   -0.3873    0.3243   -1.8583 H   0  0  0  0  0  0  0  0  0  0  0  0
   -2.0468    0.5874   -1.3430 H   0  0  0  0  0  0  0  0  0  0  0  0
   -0.1938   -1.9600   -1.3034 H   0  0  0  0  0  0  0  0  0  0  0  0
   -1.9367   -1.7985   -1.2904 H   0  0  0  0  0  0  0  0  0  0  0  0
    2.8764    4.6388    0.5261 H   0  0  0  0  0  0  0  0  0  0  0  0
   -3.7426    0.4931    0.4320 H   0  0  0  0  0  0  0  0  0  0  0  0
   -5.2023    1.2203    1.1298 H   0  0  0  0  0  0  0  0  0  0  0  0
  1  2  1  0
  2  3  2  0
  3  4  1  0
  4  5  2  0
  5  6  1  0
  6  7  2  0
  7  8  1  0
  8  9  2  0
  9 10  1  0
 10 11  2  0
 11 12  1  0
 12 13  2  0
 12 14  1  0
 14 15  1  0
 15 16  1  0
 16 17  1  0
 17 18  2  3
 18 19  1  0
 19 20  1  0
 20 21  1  0
 21 22  1  0
 22 23  1  0
 23 24  1  0
 24 25  1  0
 25 26  1  0
 26 27  1  0
 27 28  1  0
 28 29  1  0
 29 30  2  0
 30 31  1  0
 31 32  2  0
 32 33  1  0
 33 34  2  0
 34 35  1  0
 35 36  1  0
 36 37  1  0
 32 38  1  0
 25 39  1  0
  7  2  1  0
 13  8  1  0
 37 18  1  0
 38  5  1  0
 39 22  1  0
 34 29  1  0
  1 40  1  0
  1 41  1  0
  1 42  1  0
  3 43  1  0
  9 44  1  0
 10 45  1  0
 11 46  1  0
 13 47  1  0
 14 48  1  0
 14 49  1  0
 16 50  1  0
 16 51  1  0
 17 52  1  0
 19 53  1  0
 19 54  1  0
 20 55  1  0
 20 56  1  0
 21 57  1  0
 21 58  1  0
 22 59  1  0
 23 60  1  0
 23 61  1  0
 24 62  1  0
 24 63  1  0
 26 64  1  0
 26 65  1  0
 27 66  1  0
 27 67  1  0
 30 68  1  0
 31 69  1  0
 33 70  1  0
 35 71  1  0
 35 72  1  0
 37 73  1  0
 37 74  1  0
 38 75  1  0
 39 76  1  0
 39 77  1  0
M  END
>  <candidate_id>  (88) 
CAND_1f4eb01ec0

>  <source_generator>  (88) 
v5_3_model_guided_macrocycle

>  <parent_mol_id>  (88) 
JAK2_5e05d7987e

>  <canonical_smiles>  (88) 
Cc1cnc2nc1-c1cccc(c1)COCC=C1CCCC3CCN(CCOc4ccc(cc4COC1)N2)C3

>  <inchikey>  (88) 
LWSUEXVCXQIKQW-UHFFFAOYSA-N

>  <valid_rdkit>  (88) 
True

>  <unique_flag>  (88) 
True

>  <novel_flag>  (88) 
True

>  <mw>  (88) 
526.681

>  <logp>  (88) 
6.0534

>  <tpsa>  (88) 
68.74

>  <hbd>  (88) 
1

>  <hba>  (88) 
7

>  <rotatable_bonds>  (88) 
0

>  <qed>  (88) 
0.3576

>  <sa_score>  (88) 
5.408

>  <murcko_scaffold>  (88) 
C1=C2CCCC3CCN(CCOc4ccc(cc4COC2)Nc2nccc(n2)-c2cccc(c2)COC1)C3

>  <max_ring_size>  (88) 
18

>  <has_macrocycle_12_20>  (88) 
True

>  <has_constrained_ring_8_11>  (88) 
False

>  <passes_basic_filters>  (88) 
True

>  <generation_notes>  (88) 
v5_3_model_guided_anchor_pair=17-32;anchor_scores=0.312,0.079;linker_length=3;target_ring=14;linker_prob=0.523;chemotype=oxa_aza

$$$$
CAND_ee723190bd
     RDKit          3D

 76 81  0  0  0  0  0  0  0  0999 V2000
    7.1078   -1.3363    0.7202 C   0  0  0  0  0  0  0  0  0  0  0  0
    5.7618   -1.4631    1.3543 C   0  0  0  0  0  0  0  0  0  0  0  0
    5.5992   -2.1656    2.5285 C   0  0  0  0  0  0  0  0  0  0  0  0
    4.4185   -2.3375    3.1497 N   0  0  0  0  0  0  0  0  0  0  0  0
    3.3464   -1.7539    2.5952 C   0  0  0  0  0  0  0  0  0  0  0  0
    3.4000   -1.0508    1.4583 N   0  0  0  0  0  0  0  0  0  0  0  0
    4.5911   -0.9436    0.8241 C   0  0  0  0  0  0  0  0  0  0  0  0
    4.5147   -0.2629   -0.4792 C   0  0  0  0  0  0  0  0  0  0  0  0
    4.8911   -0.9150   -1.6661 C   0  0  0  0  0  0  0  0  0  0  0  0
    4.7826   -0.2790   -2.9041 C   0  0  0  0  0  0  0  0  0  0  0  0
    4.2847    1.0194   -2.9778 C   0  0  0  0  0  0  0  0  0  0  0  0
    3.8965    1.6953   -1.8153 C   0  0  0  0  0  0  0  0  0  0  0  0
    4.0119    1.0453   -0.5756 C   0  0  0  0  0  0  0  0  0  0  0  0
    3.3110    3.0814   -1.9052 C   0  0  0  0  0  0  0  0  0  0  0  0
    1.9926    3.0547   -2.4512 O   0  0  0  0  0  0  0  0  0  0  0  0
    1.0171    2.6861   -1.4707 C   0  0  0  0  0  0  0  0  0  0  0  0
   -0.3371    2.8168   -2.0957 C   0  0  0  0  0  0  0  0  0  0  0  0
   -1.5135    2.4234   -1.5560 C   0  0  0  0  0  0  0  0  0  0  0  0
   -2.8057    2.6545   -2.3339 C   0  0  0  0  0  0  0  0  0  0  0  0
   -3.5050    1.4251   -2.7248 N   0  0  0  0  0  0  0  0  0  0  0  0
   -4.4530    0.9833   -1.7029 C   0  0  0  0  0  0  0  0  0  0  0  0
   -5.0049   -0.4554   -1.8477 C   0  0  0  0  0  0  0  0  0  0  0  0
   -3.9840   -1.5455   -2.2062 C   0  0  0  0  0  0  0  0  0  0  0  0
   -3.5015   -2.1147   -0.8753 C   0  0  0  0  0  0  0  0  0  0  0  0
   -4.1935   -1.3099    0.1272 N   0  0  0  0  0  0  0  0  0  0  0  0
   -4.2475   -1.9225    1.4488 C   0  0  0  0  0  0  0  0  0  0  0  0
   -4.1900   -0.8765    2.5853 C   0  0  0  0  0  0  0  0  0  0  0  0
   -3.0465   -0.0068    2.5416 O   0  0  0  0  0  0  0  0  0  0  0  0
   -1.7979   -0.5145    2.7809 C   0  0  0  0  0  0  0  0  0  0  0  0
   -1.5491   -1.7690    3.3383 C   0  0  0  0  0  0  0  0  0  0  0  0
   -0.2379   -2.2305    3.5012 C   0  0  0  0  0  0  0  0  0  0  0  0
    0.8606   -1.4605    3.1059 C   0  0  0  0  0  0  0  0  0  0  0  0
    0.6060   -0.2010    2.5579 C   0  0  0  0  0  0  0  0  0  0  0  0
   -0.7068    0.3073    2.4459 C   0  0  0  0  0  0  0  0  0  0  0  0
   -0.8851    1.7540    2.0442 C   0  0  0  0  0  0  0  0  0  0  0  0
   -0.5662    2.0139    0.6775 O   0  0  0  0  0  0  0  0  0  0  0  0
   -1.6898    1.8110   -0.1752 C   0  0  0  0  0  0  0  0  0  0  0  0
    2.1417   -1.9972    3.2449 N   0  0  0  0  0  0  0  0  0  0  0  0
   -5.4778   -0.9364   -0.4670 C   0  0  0  0  0  0  0  0  0  0  0  0
    7.2514   -0.3395    0.2910 H   0  0  0  0  0  0  0  0  0  0  0  0
    7.9043   -1.4767    1.4595 H   0  0  0  0  0  0  0  0  0  0  0  0
    7.2347   -2.0906   -0.0622 H   0  0  0  0  0  0  0  0  0  0  0  0
    6.4424   -2.6378    3.0261 H   0  0  0  0  0  0  0  0  0  0  0  0
    5.2457   -1.9430   -1.6365 H   0  0  0  0  0  0  0  0  0  0  0  0
    5.0640   -0.8044   -3.8128 H   0  0  0  0  0  0  0  0  0  0  0  0
    4.1743    1.4990   -3.9483 H   0  0  0  0  0  0  0  0  0  0  0  0
    3.6800    1.5506    0.3308 H   0  0  0  0  0  0  0  0  0  0  0  0
    3.3258    3.5966   -0.9368 H   0  0  0  0  0  0  0  0  0  0  0  0
    3.9334    3.6810   -2.5797 H   0  0  0  0  0  0  0  0  0  0  0  0
    1.0992    3.3743   -0.6227 H   0  0  0  0  0  0  0  0  0  0  0  0
    1.1913    1.6521   -1.1581 H   0  0  0  0  0  0  0  0  0  0  0  0
   -0.3368    3.2702   -3.0850 H   0  0  0  0  0  0  0  0  0  0  0  0
   -3.4644    3.3269   -1.7690 H   0  0  0  0  0  0  0  0  0  0  0  0
   -2.5826    3.1916   -3.2642 H   0  0  0  0  0  0  0  0  0  0  0  0
   -2.7943    0.7184   -2.8996 H   0  0  0  0  0  0  0  0  0  0  0  0
   -5.3139    1.6652   -1.7213 H   0  0  0  0  0  0  0  0  0  0  0  0
   -4.0298    1.0993   -0.7059 H   0  0  0  0  0  0  0  0  0  0  0  0
   -5.8229   -0.4514   -2.5773 H   0  0  0  0  0  0  0  0  0  0  0  0
   -3.1562   -1.2110   -2.8333 H   0  0  0  0  0  0  0  0  0  0  0  0
   -4.4959   -2.3407   -2.7640 H   0  0  0  0  0  0  0  0  0  0  0  0
   -3.7655   -3.1773   -0.8095 H   0  0  0  0  0  0  0  0  0  0  0  0
   -2.4158   -2.0177   -0.7720 H   0  0  0  0  0  0  0  0  0  0  0  0
   -5.1449   -2.5432    1.5602 H   0  0  0  0  0  0  0  0  0  0  0  0
   -3.3946   -2.5999    1.5613 H   0  0  0  0  0  0  0  0  0  0  0  0
   -5.0685   -0.2248    2.5082 H   0  0  0  0  0  0  0  0  0  0  0  0
   -4.2648   -1.3564    3.5681 H   0  0  0  0  0  0  0  0  0  0  0  0
   -2.3512   -2.4220    3.6624 H   0  0  0  0  0  0  0  0  0  0  0  0
   -0.0833   -3.2202    3.9245 H   0  0  0  0  0  0  0  0  0  0  0  0
    1.4371    0.4327    2.2541 H   0  0  0  0  0  0  0  0  0  0  0  0
   -0.1851    2.3494    2.6443 H   0  0  0  0  0  0  0  0  0  0  0  0
   -1.8754    2.1448    2.3069 H   0  0  0  0  0  0  0  0  0  0  0  0
   -1.8625    0.7345   -0.2716 H   0  0  0  0  0  0  0  0  0  0  0  0
   -2.5593    2.2895    0.2898 H   0  0  0  0  0  0  0  0  0  0  0  0
    2.2791   -2.6922    3.9623 H   0  0  0  0  0  0  0  0  0  0  0  0
   -6.1478   -1.8002   -0.5620 H   0  0  0  0  0  0  0  0  0  0  0  0
   -5.9897   -0.1505    0.0978 H   0  0  0  0  0  0  0  0  0  0  0  0
  1  2  1  0
  2  3  2  0
  3  4  1  0
  4  5  2  0
  5  6  1  0
  6  7  2  0
  7  8  1  0
  8  9  2  0
  9 10  1  0
 10 11  2  0
 11 12  1  0
 12 13  2  0
 12 14  1  0
 14 15  1  0
 15 16  1  0
 16 17  1  0
 17 18  2  3
 18 19  1  0
 19 20  1  0
 20 21  1  0
 21 22  1  0
 22 23  1  0
 23 24  1  0
 24 25  1  0
 25 26  1  0
 26 27  1  0
 27 28  1  0
 28 29  1  0
 29 30  2  0
 30 31  1  0
 31 32  2  0
 32 33  1  0
 33 34  2  0
 34 35  1  0
 35 36  1  0
 36 37  1  0
 32 38  1  0
 25 39  1  0
  7  2  1  0
 13  8  1  0
 37 18  1  0
 38  5  1  0
 39 22  1  0
 34 29  1  0
  1 40  1  0
  1 41  1  0
  1 42  1  0
  3 43  1  0
  9 44  1  0
 10 45  1  0
 11 46  1  0
 13 47  1  0
 14 48  1  0
 14 49  1  0
 16 50  1  0
 16 51  1  0
 17 52  1  0
 19 53  1  0
 19 54  1  0
 20 55  1  0
 21 56  1  0
 21 57  1  0
 22 58  1  0
 23 59  1  0
 23 60  1  0
 24 61  1  0
 24 62  1  0
 26 63  1  0
 26 64  1  0
 27 65  1  0
 27 66  1  0
 30 67  1  0
 31 68  1  0
 33 69  1  0
 35 70  1  0
 35 71  1  0
 37 72  1  0
 37 73  1  0
 38 74  1  0
 39 75  1  0
 39 76  1  0
M  END
>  <candidate_id>  (89) 
CAND_ee723190bd

>  <source_generator>  (89) 
v5_3_model_guided_macrocycle

>  <parent_mol_id>  (89) 
JAK2_5e05d7987e

>  <canonical_smiles>  (89) 
Cc1cnc2nc1-c1cccc(c1)COCC=C1CNCC3CCN(CCOc4ccc(cc4COC1)N2)C3

>  <inchikey>  (89) 
BPERNDIFDVEWHX-UHFFFAOYSA-N

>  <valid_rdkit>  (89) 
True

>  <unique_flag>  (89) 
True

>  <novel_flag>  (89) 
True

>  <mw>  (89) 
527.669

>  <logp>  (89) 
4.4727

>  <tpsa>  (89) 
80.77

>  <hbd>  (89) 
2

>  <hba>  (89) 
8

>  <rotatable_bonds>  (89) 
0

>  <qed>  (89) 
0.4147

>  <sa_score>  (89) 
4.887

>  <murcko_scaffold>  (89) 
C1=C2CNCC3CCN(CCOc4ccc(cc4COC2)Nc2nccc(n2)-c2cccc(c2)COC1)C3

>  <max_ring_size>  (89) 
18

>  <has_macrocycle_12_20>  (89) 
True

>  <has_constrained_ring_8_11>  (89) 
False

>  <passes_basic_filters>  (89) 
True

>  <generation_notes>  (89) 
v5_3_model_guided_anchor_pair=17-32;anchor_scores=0.312,0.079;linker_length=3;target_ring=14;linker_prob=0.523;chemotype=aza

$$$$
CAND_5abda62ff8
     RDKit          3D

 75 80  0  0  0  0  0  0  0  0999 V2000
    7.2589   -0.6508   -1.2406 C   0  0  0  0  0  0  0  0  0  0  0  0
    5.9146   -1.2585   -1.4793 C   0  0  0  0  0  0  0  0  0  0  0  0
    5.7522   -2.2778   -2.3958 C   0  0  0  0  0  0  0  0  0  0  0  0
    4.5781   -2.8819   -2.6659 N   0  0  0  0  0  0  0  0  0  0  0  0
    3.5033   -2.4486   -1.9948 C   0  0  0  0  0  0  0  0  0  0  0  0
    3.5629   -1.4701   -1.0807 N   0  0  0  0  0  0  0  0  0  0  0  0
    4.7575   -0.8966   -0.8090 C   0  0  0  0  0  0  0  0  0  0  0  0
    4.6899    0.1158    0.2593 C   0  0  0  0  0  0  0  0  0  0  0  0
    5.4499    0.0021    1.4344 C   0  0  0  0  0  0  0  0  0  0  0  0
    5.3387    0.9428    2.4602 C   0  0  0  0  0  0  0  0  0  0  0  0
    4.4492    2.0078    2.3372 C   0  0  0  0  0  0  0  0  0  0  0  0
    3.6610    2.1406    1.1892 C   0  0  0  0  0  0  0  0  0  0  0  0
    3.7995    1.1981    0.1549 C   0  0  0  0  0  0  0  0  0  0  0  0
    2.6618    3.2701    1.0797 C   0  0  0  0  0  0  0  0  0  0  0  0
    1.7576    3.2747    2.1865 O   0  0  0  0  0  0  0  0  0  0  0  0
    0.7195    2.2994    2.0688 C   0  0  0  0  0  0  0  0  0  0  0  0
   -0.4973    2.9659    1.4994 C   0  0  0  0  0  0  0  0  0  0  0  0
   -1.1280    2.7323    0.3261 C   0  0  0  0  0  0  0  0  0  0  0  0
   -0.6518    1.7266   -0.6987 C   0  0  0  0  0  0  0  0  0  0  0  0
   -1.4529    0.5506   -0.6894 O   0  0  0  0  0  0  0  0  0  0  0  0
   -1.0362   -0.4514    0.2323 C   0  0  0  0  0  0  0  0  0  0  0  0
   -0.6947   -1.7042   -0.5247 C   0  0  0  0  0  0  0  0  0  0  0  0
    0.5880   -1.8137   -1.0928 C   0  0  0  0  0  0  0  0  0  0  0  0
    1.0070   -2.9551   -1.7810 C   0  0  0  0  0  0  0  0  0  0  0  0
    0.0889   -4.0040   -1.9085 C   0  0  0  0  0  0  0  0  0  0  0  0
   -1.1969   -3.9119   -1.3618 C   0  0  0  0  0  0  0  0  0  0  0  0
   -1.5920   -2.7601   -0.6847 C   0  0  0  0  0  0  0  0  0  0  0  0
   -2.8148   -2.7136   -0.0715 O   0  0  0  0  0  0  0  0  0  0  0  0
   -3.9096   -2.6710   -1.0023 C   0  0  0  0  0  0  0  0  0  0  0  0
   -4.4995   -1.2517   -1.0897 C   0  0  0  0  0  0  0  0  0  0  0  0
   -5.5377   -0.9191   -0.0934 N   0  0  0  0  0  0  0  0  0  0  0  0
   -5.1031   -1.0647    1.3031 C   0  0  0  0  0  0  0  0  0  0  0  0
   -5.6497    0.1594    2.0308 C   0  0  0  0  0  0  0  0  0  0  0  0
   -5.5731    1.2558    0.9675 C   0  0  0  0  0  0  0  0  0  0  0  0
   -4.1587    1.8724    0.9355 C   0  0  0  0  0  0  0  0  0  0  0  0
   -3.8294    2.8839   -0.5427 S   0  0  0  0  0  0  0  0  0  0  0  0
   -2.2568    3.6569   -0.0851 C   0  0  0  0  0  0  0  0  0  0  0  0
   -6.0033    0.4697   -0.2720 C   0  0  0  0  0  0  0  0  0  0  0  0
    2.3102   -3.1189   -2.2618 N   0  0  0  0  0  0  0  0  0  0  0  0
    7.9209   -0.8081   -2.0968 H   0  0  0  0  0  0  0  0  0  0  0  0
    7.7307   -1.0979   -0.3621 H   0  0  0  0  0  0  0  0  0  0  0  0
    7.1836    0.4298   -1.0981 H   0  0  0  0  0  0  0  0  0  0  0  0
    6.5955   -2.6649   -2.9643 H   0  0  0  0  0  0  0  0  0  0  0  0
    6.1164   -0.8432    1.5756 H   0  0  0  0  0  0  0  0  0  0  0  0
    5.9293    0.8326    3.3660 H   0  0  0  0  0  0  0  0  0  0  0  0
    4.3513    2.7236    3.1511 H   0  0  0  0  0  0  0  0  0  0  0  0
    3.1869    1.2854   -0.7418 H   0  0  0  0  0  0  0  0  0  0  0  0
    3.2090    4.2180    1.0924 H   0  0  0  0  0  0  0  0  0  0  0  0
    2.1059    3.2399    0.1321 H   0  0  0  0  0  0  0  0  0  0  0  0
    1.0500    1.4322    1.5043 H   0  0  0  0  0  0  0  0  0  0  0  0
    0.4875    1.9503    3.0772 H   0  0  0  0  0  0  0  0  0  0  0  0
   -0.8735    3.7586    2.1431 H   0  0  0  0  0  0  0  0  0  0  0  0
   -0.7463    2.1732   -1.6989 H   0  0  0  0  0  0  0  0  0  0  0  0
    0.4093    1.4781   -0.5947 H   0  0  0  0  0  0  0  0  0  0  0  0
   -1.8454   -0.6315    0.9446 H   0  0  0  0  0  0  0  0  0  0  0  0
   -0.1713   -0.1440    0.8273 H   0  0  0  0  0  0  0  0  0  0  0  0
    1.2663   -0.9741   -0.9743 H   0  0  0  0  0  0  0  0  0  0  0  0
    0.3771   -4.9239   -2.4070 H   0  0  0  0  0  0  0  0  0  0  0  0
   -1.8732   -4.7555   -1.4406 H   0  0  0  0  0  0  0  0  0  0  0  0
   -3.6094   -2.9920   -2.0082 H   0  0  0  0  0  0  0  0  0  0  0  0
   -4.6691   -3.3837   -0.6608 H   0  0  0  0  0  0  0  0  0  0  0  0
   -4.9676   -1.1657   -2.0781 H   0  0  0  0  0  0  0  0  0  0  0  0
   -3.6915   -0.5171   -1.0478 H   0  0  0  0  0  0  0  0  0  0  0  0
   -4.0160   -1.0699    1.4080 H   0  0  0  0  0  0  0  0  0  0  0  0
   -5.4872   -1.9930    1.7363 H   0  0  0  0  0  0  0  0  0  0  0  0
   -6.6953   -0.0092    2.3204 H   0  0  0  0  0  0  0  0  0  0  0  0
   -5.0797    0.3944    2.9366 H   0  0  0  0  0  0  0  0  0  0  0  0
   -6.2994    2.0493    1.1871 H   0  0  0  0  0  0  0  0  0  0  0  0
   -3.3983    1.0939    0.9887 H   0  0  0  0  0  0  0  0  0  0  0  0
   -4.0367    2.5044    1.8222 H   0  0  0  0  0  0  0  0  0  0  0  0
   -1.9179    4.2407   -0.9500 H   0  0  0  0  0  0  0  0  0  0  0  0
   -2.4764    4.3873    0.6992 H   0  0  0  0  0  0  0  0  0  0  0  0
   -7.1017    0.4327   -0.2941 H   0  0  0  0  0  0  0  0  0  0  0  0
   -5.7057    0.9202   -1.2237 H   0  0  0  0  0  0  0  0  0  0  0  0
    2.4787   -3.8720   -2.9096 H   0  0  0  0  0  0  0  0  0  0  0  0
  1  2  1  0
  2  3  2  0
  3  4  1  0
  4  5  2  0
  5  6  1  0
  6  7  2  0
  7  8  1  0
  8  9  2  0
  9 10  1  0
 10 11  2  0
 11 12  1  0
 12 13  2  0
 12 14  1  0
 14 15  1  0
 15 16  1  0
 16 17  1  0
 17 18  2  3
 18 19  1  0
 19 20  1  0
 20 21  1  0
 21 22  1  0
 22 23  2  0
 23 24  1  0
 24 25  2  0
 25 26  1  0
 26 27  2  0
 27 28  1  0
 28 29  1  0
 29 30  1  0
 30 31  1  0
 31 32  1  0
 32 33  1  0
 33 34  1  0
 34 35  1  0
 35 36  1  0
 36 37  1  0
 34 38  1  0
 24 39  1  0
  7  2  1  0
 13  8  1  0
 37 18  1  0
 39  5  1  0
 27 22  1  0
 38 31  1  0
  1 40  1  0
  1 41  1  0
  1 42  1  0
  3 43  1  0
  9 44  1  0
 10 45  1  0
 11 46  1  0
 13 47  1  0
 14 48  1  0
 14 49  1  0
 16 50  1  0
 16 51  1  0
 17 52  1  0
 19 53  1  0
 19 54  1  0
 21 55  1  0
 21 56  1  0
 23 57  1  0
 25 58  1  0
 26 59  1  0
 29 60  1  0
 29 61  1  0
 30 62  1  0
 30 63  1  0
 32 64  1  0
 32 65  1  0
 33 66  1  0
 33 67  1  0
 34 68  1  0
 35 69  1  0
 35 70  1  0
 37 71  1  0
 37 72  1  0
 38 73  1  0
 38 74  1  0
 39 75  1  0
M  END
>  <candidate_id>  (90) 
CAND_5abda62ff8

>  <source_generator>  (90) 
v5_3_model_guided_macrocycle

>  <parent_mol_id>  (90) 
JAK2_5e05d7987e

>  <canonical_smiles>  (90) 
Cc1cnc2nc1-c1cccc(c1)COCC=C1COCc3cc(ccc3OCCN3CCC(CSC1)C3)N2

>  <inchikey>  (90) 
UMHBGPJTAUBEGU-UHFFFAOYSA-N

>  <valid_rdkit>  (90) 
True

>  <unique_flag>  (90) 
True

>  <novel_flag>  (90) 
True

>  <mw>  (90) 
544.721

>  <logp>  (90) 
5.6163

>  <tpsa>  (90) 
68.74

>  <hbd>  (90) 
1

>  <hba>  (90) 
8

>  <rotatable_bonds>  (90) 
0

>  <qed>  (90) 
0.3662

>  <sa_score>  (90) 
5.29

>  <murcko_scaffold>  (90) 
C1=C2COCc3cc(ccc3OCCN3CCC(CSC2)C3)Nc2nccc(n2)-c2cccc(c2)COC1

>  <max_ring_size>  (90) 
18

>  <has_macrocycle_12_20>  (90) 
True

>  <has_constrained_ring_8_11>  (90) 
False

>  <passes_basic_filters>  (90) 
True

>  <generation_notes>  (90) 
v5_3_model_guided_anchor_pair=17-32;anchor_scores=0.312,0.079;linker_length=3;target_ring=14;linker_prob=0.523;chemotype=thioether

$$$$
CAND_5152217faa
     RDKit          3D

 71 77  0  0  0  0  0  0  0  0999 V2000
   -4.4525    1.5698   -1.1334 F   0  0  0  0  0  0  0  0  0  0  0  0
   -3.8951    0.6795   -0.3001 C   0  0  0  0  0  0  0  0  0  0  0  0
   -4.0551   -0.6781   -0.5853 C   0  0  0  0  0  0  0  0  0  0  0  0
   -3.4857   -1.6515    0.2465 C   0  0  0  0  0  0  0  0  0  0  0  0
   -2.8282   -1.2206    1.4078 C   0  0  0  0  0  0  0  0  0  0  0  0
   -2.6743    0.1378    1.6732 C   0  0  0  0  0  0  0  0  0  0  0  0
   -2.0007    0.4980    2.7759 F   0  0  0  0  0  0  0  0  0  0  0  0
   -3.1572    1.1135    0.8022 C   0  0  0  0  0  0  0  0  0  0  0  0
   -2.8773    2.5728    1.0539 C   0  0  0  0  0  0  0  0  0  0  0  0
   -2.2599    3.2675   -0.0749 N   0  0  0  0  0  0  0  0  0  0  0  0
   -2.3093    4.7226    0.0288 C   0  0  0  0  0  0  0  0  0  0  0  0
   -2.1075    5.3644   -1.3578 C   0  0  0  0  0  0  0  0  0  0  0  0
   -1.1861    4.6733   -2.2108 O   0  0  0  0  0  0  0  0  0  0  0  0
   -0.2569    3.8850   -1.4696 C   0  0  0  0  0  0  0  0  0  0  0  0
   -0.9542    2.7946   -0.5972 C   0  0  0  0  0  0  0  0  0  0  0  0
    0.0537    2.2804    0.4627 C   0  0  0  0  0  0  0  0  0  0  0  0
    1.2918    1.6081   -0.1564 C   0  0  0  0  0  0  0  0  0  0  0  0
    2.1842    0.9748    0.9269 C   0  0  0  0  0  0  0  0  0  0  0  0
    3.2583   -0.0628    0.4332 C   0  0  0  0  0  0  0  0  0  0  0  0
    4.1300    0.5458   -0.7043 C   0  0  0  0  0  0  0  0  0  0  0  0
    5.2144    1.4585   -0.1395 C   0  0  0  0  0  0  0  0  0  0  0  0
    6.1426    0.7654    0.7521 N   0  0  0  0  0  0  0  0  0  0  0  0
    5.6314   -0.4915    1.2971 C   0  0  0  0  0  0  0  0  0  0  0  0
    4.1550   -0.3987    1.6687 C   0  0  0  0  0  0  0  0  0  0  0  0
    2.6429   -1.3310   -0.0371 N   0  0  0  0  0  0  0  0  0  0  0  0
    1.3396   -1.7355    0.0543 C   0  0  0  0  0  0  0  0  0  0  0  0
    1.2630   -3.0090   -0.4763 C   0  0  0  0  0  0  0  0  0  0  0  0
    2.5936   -3.3044   -0.8251 C   0  0  0  0  0  0  0  0  0  0  0  0
    3.4349   -2.3076   -0.5419 N   0  0  0  0  0  0  0  0  0  0  0  0
    0.0324   -3.7662   -0.5879 C   0  0  0  0  0  0  0  0  0  0  0  0
   -0.0131   -5.0961   -0.9591 C   0  0  0  0  0  0  0  0  0  0  0  0
   -1.1759   -5.7883   -1.0578 N   0  0  0  0  0  0  0  0  0  0  0  0
   -2.3095   -5.1116   -0.7804 C   0  0  0  0  0  0  0  0  0  0  0  0
   -3.5299   -5.7658   -0.8754 C   0  0  0  0  0  0  0  0  0  0  0  0
   -4.7308   -5.1099   -0.6092 C   0  0  0  0  0  0  0  0  0  0  0  0
   -4.7147   -3.7698   -0.2399 C   0  0  0  0  0  0  0  0  0  0  0  0
   -3.4971   -3.0789   -0.1285 C   0  0  0  0  0  0  0  0  0  0  0  0
   -2.2855   -3.7481   -0.3988 C   0  0  0  0  0  0  0  0  0  0  0  0
   -1.1056   -3.0937   -0.3054 N   0  0  0  0  0  0  0  0  0  0  0  0
   -4.5843   -0.9570   -1.4927 H   0  0  0  0  0  0  0  0  0  0  0  0
   -2.3776   -1.9383    2.0891 H   0  0  0  0  0  0  0  0  0  0  0  0
   -2.2726    2.7125    1.9581 H   0  0  0  0  0  0  0  0  0  0  0  0
   -3.8514    3.0290    1.2774 H   0  0  0  0  0  0  0  0  0  0  0  0
   -3.2697    5.0733    0.4254 H   0  0  0  0  0  0  0  0  0  0  0  0
   -1.5355    5.0740    0.7234 H   0  0  0  0  0  0  0  0  0  0  0  0
   -1.7582    6.3961   -1.2426 H   0  0  0  0  0  0  0  0  0  0  0  0
   -3.0617    5.4004   -1.8947 H   0  0  0  0  0  0  0  0  0  0  0  0
    0.4077    3.4083   -2.1977 H   0  0  0  0  0  0  0  0  0  0  0  0
    0.3555    4.5601   -0.8584 H   0  0  0  0  0  0  0  0  0  0  0  0
   -1.1952    1.9603   -1.2688 H   0  0  0  0  0  0  0  0  0  0  0  0
    0.3686    3.1068    1.1124 H   0  0  0  0  0  0  0  0  0  0  0  0
   -0.4205    1.5409    1.1089 H   0  0  0  0  0  0  0  0  0  0  0  0
    1.8745    2.3569   -0.7031 H   0  0  0  0  0  0  0  0  0  0  0  0
    0.9667    0.8565   -0.8825 H   0  0  0  0  0  0  0  0  0  0  0  0
    1.5590    0.5007    1.6952 H   0  0  0  0  0  0  0  0  0  0  0  0
    2.6890    1.8038    1.4414 H   0  0  0  0  0  0  0  0  0  0  0  0
    4.6252   -0.2364   -1.2951 H   0  0  0  0  0  0  0  0  0  0  0  0
    3.5205    1.0907   -1.4320 H   0  0  0  0  0  0  0  0  0  0  0  0
    5.7885    1.8992   -0.9617 H   0  0  0  0  0  0  0  0  0  0  0  0
    4.7513    2.2938    0.3983 H   0  0  0  0  0  0  0  0  0  0  0  0
    6.4359    1.3902    1.5022 H   0  0  0  0  0  0  0  0  0  0  0  0
    5.8011   -1.2986    0.5758 H   0  0  0  0  0  0  0  0  0  0  0  0
    6.2181   -0.7528    2.1853 H   0  0  0  0  0  0  0  0  0  0  0  0
    3.8386   -1.3346    2.1470 H   0  0  0  0  0  0  0  0  0  0  0  0
    4.0553    0.3730    2.4440 H   0  0  0  0  0  0  0  0  0  0  0  0
    0.5607   -1.1121    0.4693 H   0  0  0  0  0  0  0  0  0  0  0  0
    2.9977   -4.2031   -1.2725 H   0  0  0  0  0  0  0  0  0  0  0  0
    0.8795   -5.6659   -1.1892 H   0  0  0  0  0  0  0  0  0  0  0  0
   -3.5435   -6.8134   -1.1681 H   0  0  0  0  0  0  0  0  0  0  0  0
   -5.6738   -5.6449   -0.6928 H   0  0  0  0  0  0  0  0  0  0  0  0
   -5.6552   -3.2624   -0.0327 H   0  0  0  0  0  0  0  0  0  0  0  0
  1  2  1  0
  2  3  1  0
  3  4  2  0
  4  5  1  0
  5  6  2  0
  6  7  1  0
  6  8  1  0
  8  9  1  0
  9 10  1  0
 10 11  1  0
 11 12  1  0
 12 13  1  0
 13 14  1  0
 14 15  1  0
 15 16  1  0
 16 17  1  0
 17 18  1  0
 18 19  1  0
 19 20  1  0
 20 21  1  0
 21 22  1  0
 22 23  1  0
 23 24  1  0
 19 25  1  0
 25 26  1  0
 26 27  2  0
 27 28  1  0
 28 29  2  0
 27 30  1  0
 30 31  2  0
 31 32  1  0
 32 33  2  0
 33 34  1  0
 34 35  2  0
 35 36  1  0
 36 37  2  0
 37 38  1  0
 38 39  2  0
  8  2  2  0
 15 10  1  0
 24 19  1  0
 29 25  1  0
 39 30  1  0
 37  4  1  0
 38 33  1  0
  3 40  1  0
  5 41  1  0
  9 42  1  0
  9 43  1  0
 11 44  1  0
 11 45  1  0
 12 46  1  0
 12 47  1  0
 14 48  1  0
 14 49  1  0
 15 50  1  0
 16 51  1  0
 16 52  1  0
 17 53  1  0
 17 54  1  0
 18 55  1  0
 18 56  1  0
 20 57  1  0
 20 58  1  0
 21 59  1  0
 21 60  1  0
 22 61  1  0
 23 62  1  0
 23 63  1  0
 24 64  1  0
 24 65  1  0
 26 66  1  0
 28 67  1  0
 31 68  1  0
 34 69  1  0
 35 70  1  0
 36 71  1  0
M  END
>  <candidate_id>  (91) 
CAND_5152217faa

>  <source_generator>  (91) 
v5_3_model_guided_macrocycle

>  <parent_mol_id>  (91) 
JAK2_2dc2722230

>  <canonical_smiles>  (91) 
Fc1cc2cc(F)c1CN1CCOCC1CCCC1(CCNCC1)n1cc(cn1)-c1cnc3cccc-2c3n1

>  <inchikey>  (91) 
NCEUIZMIJXOARZ-UHFFFAOYSA-N

>  <valid_rdkit>  (91) 
True

>  <unique_flag>  (91) 
True

>  <novel_flag>  (91) 
True

>  <mw>  (91) 
530.623

>  <logp>  (91) 
4.9019

>  <tpsa>  (91) 
68.1

>  <hbd>  (91) 
1

>  <hba>  (91) 
6

>  <rotatable_bonds>  (91) 
0

>  <qed>  (91) 
0.3489

>  <sa_score>  (91) 
4.653

>  <murcko_scaffold>  (91) 
c1cc2c3nc(cnc3c1)-c1cnn(c1)C1(CCCC3COCCN3Cc3ccc-2cc3)CCNCC1

>  <max_ring_size>  (91) 
18

>  <has_macrocycle_12_20>  (91) 
True

>  <has_constrained_ring_8_11>  (91) 
False

>  <passes_basic_filters>  (91) 
True

>  <generation_notes>  (91) 
v5_3_model_guided_anchor_pair=16-31;anchor_scores=0.691,0.079;linker_length=3;target_ring=17;linker_prob=0.539;chemotype=alkyl

$$$$
CAND_c32c4f2b09
     RDKit          3D

 69 75  0  0  0  0  0  0  0  0999 V2000
    3.2850    0.8044   -2.4869 F   0  0  0  0  0  0  0  0  0  0  0  0
    3.3472    0.3608   -1.2232 C   0  0  0  0  0  0  0  0  0  0  0  0
    3.4833   -1.0097   -1.0067 C   0  0  0  0  0  0  0  0  0  0  0  0
    3.5138   -1.5227    0.2973 C   0  0  0  0  0  0  0  0  0  0  0  0
    3.4639   -0.6201    1.3671 C   0  0  0  0  0  0  0  0  0  0  0  0
    3.3257    0.7486    1.1301 C   0  0  0  0  0  0  0  0  0  0  0  0
    3.2709    1.5724    2.1865 F   0  0  0  0  0  0  0  0  0  0  0  0
    3.2220    1.2608   -0.1651 C   0  0  0  0  0  0  0  0  0  0  0  0
    2.9791    2.7264   -0.4195 C   0  0  0  0  0  0  0  0  0  0  0  0
    1.7408    3.2526    0.1977 N   0  0  0  0  0  0  0  0  0  0  0  0
    1.8435    4.7266    0.3713 C   0  0  0  0  0  0  0  0  0  0  0  0
    0.9354    5.5695   -0.5441 C   0  0  0  0  0  0  0  0  0  0  0  0
    0.9107    5.0293   -1.8636 O   0  0  0  0  0  0  0  0  0  0  0  0
    0.3582    3.7022   -1.8862 C   0  0  0  0  0  0  0  0  0  0  0  0
    0.4806    2.9428   -0.5373 C   0  0  0  0  0  0  0  0  0  0  0  0
    0.1606    1.4479   -0.7419 C   0  0  0  0  0  0  0  0  0  0  0  0
   -1.2255    1.1988   -1.0092 O   0  0  0  0  0  0  0  0  0  0  0  0
   -2.0525    1.1968    0.1623 C   0  0  0  0  0  0  0  0  0  0  0  0
   -3.1673    0.1066    0.0686 C   0  0  0  0  0  0  0  0  0  0  0  0
   -3.9653    0.3424   -1.2446 C   0  0  0  0  0  0  0  0  0  0  0  0
   -5.4555    0.0914   -1.0465 C   0  0  0  0  0  0  0  0  0  0  0  0
   -6.0310    1.0159   -0.0670 N   0  0  0  0  0  0  0  0  0  0  0  0
   -5.1883    1.2678    1.0979 C   0  0  0  0  0  0  0  0  0  0  0  0
   -4.0927    0.2291    1.3086 C   0  0  0  0  0  0  0  0  0  0  0  0
   -2.5904   -1.2611    0.0744 N   0  0  0  0  0  0  0  0  0  0  0  0
   -1.3376   -1.6517    0.4530 C   0  0  0  0  0  0  0  0  0  0  0  0
   -1.2416   -3.0092    0.2289 C   0  0  0  0  0  0  0  0  0  0  0  0
   -2.5341   -3.3691   -0.1945 C   0  0  0  0  0  0  0  0  0  0  0  0
   -3.3663   -2.3249   -0.2584 N   0  0  0  0  0  0  0  0  0  0  0  0
   -0.0186   -3.7603    0.4145 C   0  0  0  0  0  0  0  0  0  0  0  0
    0.0161   -5.1306    0.5810 C   0  0  0  0  0  0  0  0  0  0  0  0
    1.1752   -5.8147    0.7518 N   0  0  0  0  0  0  0  0  0  0  0  0
    2.3139   -5.0903    0.7402 C   0  0  0  0  0  0  0  0  0  0  0  0
    3.5317   -5.7356    0.9074 C   0  0  0  0  0  0  0  0  0  0  0  0
    4.7370   -5.0343    0.8937 C   0  0  0  0  0  0  0  0  0  0  0  0
    4.7290   -3.6575    0.7021 C   0  0  0  0  0  0  0  0  0  0  0  0
    3.5146   -2.9760    0.5290 C   0  0  0  0  0  0  0  0  0  0  0  0
    2.2986   -3.6859    0.5574 C   0  0  0  0  0  0  0  0  0  0  0  0
    1.1243   -3.0355    0.4059 N   0  0  0  0  0  0  0  0  0  0  0  0
    3.5173   -1.6742   -1.8664 H   0  0  0  0  0  0  0  0  0  0  0  0
    3.4889   -0.9727    2.3949 H   0  0  0  0  0  0  0  0  0  0  0  0
    3.0125    2.9591   -1.4904 H   0  0  0  0  0  0  0  0  0  0  0  0
    3.8553    3.2267    0.0166 H   0  0  0  0  0  0  0  0  0  0  0  0
    2.8761    5.0706    0.2334 H   0  0  0  0  0  0  0  0  0  0  0  0
    1.5955    4.9645    1.4128 H   0  0  0  0  0  0  0  0  0  0  0  0
    1.3174    6.5939   -0.6032 H   0  0  0  0  0  0  0  0  0  0  0  0
   -0.0888    5.6265   -0.1559 H   0  0  0  0  0  0  0  0  0  0  0  0
   -0.6970    3.7878   -2.1706 H   0  0  0  0  0  0  0  0  0  0  0  0
    0.8714    3.1647   -2.6913 H   0  0  0  0  0  0  0  0  0  0  0  0
   -0.3215    3.3283    0.1079 H   0  0  0  0  0  0  0  0  0  0  0  0
    0.4688    0.8604    0.1273 H   0  0  0  0  0  0  0  0  0  0  0  0
    0.7049    1.0618   -1.6081 H   0  0  0  0  0  0  0  0  0  0  0  0
   -1.4587    1.0672    1.0756 H   0  0  0  0  0  0  0  0  0  0  0  0
   -2.5059    2.1929    0.2279 H   0  0  0  0  0  0  0  0  0  0  0  0
   -3.5859   -0.2841   -2.0617 H   0  0  0  0  0  0  0  0  0  0  0  0
   -3.8455    1.3800   -1.5865 H   0  0  0  0  0  0  0  0  0  0  0  0
   -5.6420   -0.9428   -0.7365 H   0  0  0  0  0  0  0  0  0  0  0  0
   -5.9776    0.2312   -1.9994 H   0  0  0  0  0  0  0  0  0  0  0  0
   -6.9404    0.6562    0.2256 H   0  0  0  0  0  0  0  0  0  0  0  0
   -5.8204    1.3170    1.9922 H   0  0  0  0  0  0  0  0  0  0  0  0
   -4.7409    2.2621    0.9900 H   0  0  0  0  0  0  0  0  0  0  0  0
   -3.5068    0.4837    2.2009 H   0  0  0  0  0  0  0  0  0  0  0  0
   -4.5738   -0.7311    1.5407 H   0  0  0  0  0  0  0  0  0  0  0  0
   -0.5908   -0.9610    0.8106 H   0  0  0  0  0  0  0  0  0  0  0  0
   -2.9123   -4.3449   -0.4703 H   0  0  0  0  0  0  0  0  0  0  0  0
   -0.8828   -5.7359    0.5945 H   0  0  0  0  0  0  0  0  0  0  0  0
    3.5398   -6.8141    1.0503 H   0  0  0  0  0  0  0  0  0  0  0  0
    5.6772   -5.5646    1.0257 H   0  0  0  0  0  0  0  0  0  0  0  0
    5.6714   -3.1132    0.6814 H   0  0  0  0  0  0  0  0  0  0  0  0
  1  2  1  0
  2  3  1  0
  3  4  2  0
  4  5  1  0
  5  6  2  0
  6  7  1  0
  6  8  1  0
  8  9  1  0
  9 10  1  0
 10 11  1  0
 11 12  1  0
 12 13  1  0
 13 14  1  0
 14 15  1  0
 15 16  1  0
 16 17  1  0
 17 18  1  0
 18 19  1  0
 19 20  1  0
 20 21  1  0
 21 22  1  0
 22 23  1  0
 23 24  1  0
 19 25  1  0
 25 26  1  0
 26 27  2  0
 27 28  1  0
 28 29  2  0
 27 30  1  0
 30 31  2  0
 31 32  1  0
 32 33  2  0
 33 34  1  0
 34 35  2  0
 35 36  1  0
 36 37  2  0
 37 38  1  0
 38 39  2  0
  8  2  2  0
 15 10  1  0
 24 19  1  0
 29 25  1  0
 39 30  1  0
 37  4  1  0
 38 33  1  0
  3 40  1  0
  5 41  1  0
  9 42  1  0
  9 43  1  0
 11 44  1  0
 11 45  1  0
 12 46  1  0
 12 47  1  0
 14 48  1  0
 14 49  1  0
 15 50  1  0
 16 51  1  0
 16 52  1  0
 18 53  1  0
 18 54  1  0
 20 55  1  0
 20 56  1  0
 21 57  1  0
 21 58  1  0
 22 59  1  0
 23 60  1  0
 23 61  1  0
 24 62  1  0
 24 63  1  0
 26 64  1  0
 28 65  1  0
 31 66  1  0
 34 67  1  0
 35 68  1  0
 36 69  1  0
M  END
>  <candidate_id>  (92) 
CAND_c32c4f2b09

>  <source_generator>  (92) 
v5_3_model_guided_macrocycle

>  <parent_mol_id>  (92) 
JAK2_2dc2722230

>  <canonical_smiles>  (92) 
Fc1cc2cc(F)c1CN1CCOCC1COCC1(CCNCC1)n1cc(cn1)-c1cnc3cccc-2c3n1

>  <inchikey>  (92) 
IHUURJAMUAUACN-UHFFFAOYSA-N

>  <valid_rdkit>  (92) 
True

>  <unique_flag>  (92) 
True

>  <novel_flag>  (92) 
True

>  <mw>  (92) 
532.595

>  <logp>  (92) 
3.7482

>  <tpsa>  (92) 
77.33

>  <hbd>  (92) 
1

>  <hba>  (92) 
7

>  <rotatable_bonds>  (92) 
0

>  <qed>  (92) 
0.3698

>  <sa_score>  (92) 
4.664

>  <murcko_scaffold>  (92) 
c1cc2c3nc(cnc3c1)-c1cnn(c1)C1(CCNCC1)COCC1COCCN1Cc1ccc-2cc1

>  <max_ring_size>  (92) 
18

>  <has_macrocycle_12_20>  (92) 
True

>  <has_constrained_ring_8_11>  (92) 
False

>  <passes_basic_filters>  (92) 
True

>  <generation_notes>  (92) 
v5_3_model_guided_anchor_pair=16-31;anchor_scores=0.691,0.079;linker_length=3;target_ring=17;linker_prob=0.539;chemotype=oxa

$$$$
CAND_3b164e0480
     RDKit          3D

 70 76  0  0  0  0  0  0  0  0999 V2000
    2.2489    0.6221    2.3024 F   0  0  0  0  0  0  0  0  0  0  0  0
    2.7507    0.2716    1.1089 C   0  0  0  0  0  0  0  0  0  0  0  0
    2.9937   -1.0754    0.8630 C   0  0  0  0  0  0  0  0  0  0  0  0
    3.4568   -1.5077   -0.3919 C   0  0  0  0  0  0  0  0  0  0  0  0
    3.7703   -0.5326   -1.3454 C   0  0  0  0  0  0  0  0  0  0  0  0
    3.5383    0.8181   -1.0733 C   0  0  0  0  0  0  0  0  0  0  0  0
    3.8361    1.7132   -2.0263 F   0  0  0  0  0  0  0  0  0  0  0  0
    2.9859    1.2400    0.1377 C   0  0  0  0  0  0  0  0  0  0  0  0
    2.6033    2.6732    0.3861 C   0  0  0  0  0  0  0  0  0  0  0  0
    1.4063    3.0442   -0.4014 N   0  0  0  0  0  0  0  0  0  0  0  0
    1.7749    4.0452   -1.4360 C   0  0  0  0  0  0  0  0  0  0  0  0
    1.6530    5.5195   -0.9858 C   0  0  0  0  0  0  0  0  0  0  0  0
    1.8149    5.6610    0.4292 O   0  0  0  0  0  0  0  0  0  0  0  0
    0.8069    4.9354    1.1565 C   0  0  0  0  0  0  0  0  0  0  0  0
    0.3270    3.6531    0.4257 C   0  0  0  0  0  0  0  0  0  0  0  0
   -0.4223    2.6958    1.3951 C   0  0  0  0  0  0  0  0  0  0  0  0
   -1.1168    1.6274    0.6580 N   0  0  0  0  0  0  0  0  0  0  0  0
   -2.1739    0.9823    1.4571 C   0  0  0  0  0  0  0  0  0  0  0  0
   -3.1252    0.0050    0.6695 C   0  0  0  0  0  0  0  0  0  0  0  0
   -4.4921   -0.0368    1.4156 C   0  0  0  0  0  0  0  0  0  0  0  0
   -5.5285   -0.9152    0.7017 C   0  0  0  0  0  0  0  0  0  0  0  0
   -5.3638   -0.9546   -0.7515 N   0  0  0  0  0  0  0  0  0  0  0  0
   -4.8347    0.2905   -1.2708 C   0  0  0  0  0  0  0  0  0  0  0  0
   -3.4091    0.5422   -0.7720 C   0  0  0  0  0  0  0  0  0  0  0  0
   -2.5023   -1.3400    0.6540 N   0  0  0  0  0  0  0  0  0  0  0  0
   -1.4124   -1.7399   -0.0732 C   0  0  0  0  0  0  0  0  0  0  0  0
   -1.1360   -3.0410    0.2955 C   0  0  0  0  0  0  0  0  0  0  0  0
   -2.0940   -3.3319    1.2805 C   0  0  0  0  0  0  0  0  0  0  0  0
   -2.8960   -2.2960    1.5358 N   0  0  0  0  0  0  0  0  0  0  0  0
    0.0084   -3.7833   -0.1713 C   0  0  0  0  0  0  0  0  0  0  0  0
    0.0143   -5.1418   -0.4092 C   0  0  0  0  0  0  0  0  0  0  0  0
    1.1364   -5.8064   -0.7922 N   0  0  0  0  0  0  0  0  0  0  0  0
    2.2679   -5.0738   -0.9071 C   0  0  0  0  0  0  0  0  0  0  0  0
    3.4584   -5.6830   -1.2809 C   0  0  0  0  0  0  0  0  0  0  0  0
    4.6469   -4.9576   -1.3888 C   0  0  0  0  0  0  0  0  0  0  0  0
    4.6550   -3.5942   -1.1074 C   0  0  0  0  0  0  0  0  0  0  0  0
    3.4721   -2.9483   -0.7222 C   0  0  0  0  0  0  0  0  0  0  0  0
    2.2743   -3.6847   -0.6440 C   0  0  0  0  0  0  0  0  0  0  0  0
    1.1334   -3.0561   -0.3030 N   0  0  0  0  0  0  0  0  0  0  0  0
    2.7377   -1.7941    1.6383 H   0  0  0  0  0  0  0  0  0  0  0  0
    4.1333   -0.8089   -2.3314 H   0  0  0  0  0  0  0  0  0  0  0  0
    2.4378    2.8093    1.4613 H   0  0  0  0  0  0  0  0  0  0  0  0
    3.4717    3.3101    0.1687 H   0  0  0  0  0  0  0  0  0  0  0  0
    1.1211    3.9016   -2.3058 H   0  0  0  0  0  0  0  0  0  0  0  0
    2.7851    3.8653   -1.8222 H   0  0  0  0  0  0  0  0  0  0  0  0
    2.4236    6.1232   -1.4759 H   0  0  0  0  0  0  0  0  0  0  0  0
    0.6787    5.9355   -1.2700 H   0  0  0  0  0  0  0  0  0  0  0  0
    1.2321    4.7002    2.1378 H   0  0  0  0  0  0  0  0  0  0  0  0
   -0.0408    5.6108    1.3203 H   0  0  0  0  0  0  0  0  0  0  0  0
   -0.4470    3.9781   -0.2881 H   0  0  0  0  0  0  0  0  0  0  0  0
    0.2594    2.2612    2.1335 H   0  0  0  0  0  0  0  0  0  0  0  0
   -1.1550    3.2977    1.9476 H   0  0  0  0  0  0  0  0  0  0  0  0
   -0.4192    0.9497    0.3414 H   0  0  0  0  0  0  0  0  0  0  0  0
   -1.7225    0.4653    2.3139 H   0  0  0  0  0  0  0  0  0  0  0  0
   -2.7991    1.7847    1.8702 H   0  0  0  0  0  0  0  0  0  0  0  0
   -4.8942    0.9849    1.4741 H   0  0  0  0  0  0  0  0  0  0  0  0
   -4.3774   -0.3705    2.4547 H   0  0  0  0  0  0  0  0  0  0  0  0
   -6.5291   -0.5374    0.9462 H   0  0  0  0  0  0  0  0  0  0  0  0
   -5.4924   -1.9416    1.0810 H   0  0  0  0  0  0  0  0  0  0  0  0
   -6.2539   -1.1859   -1.1907 H   0  0  0  0  0  0  0  0  0  0  0  0
   -5.4906    1.1262   -0.9955 H   0  0  0  0  0  0  0  0  0  0  0  0
   -4.8262    0.2574   -2.3662 H   0  0  0  0  0  0  0  0  0  0  0  0
   -3.2652    1.6299   -0.8055 H   0  0  0  0  0  0  0  0  0  0  0  0
   -2.7023    0.1232   -1.4969 H   0  0  0  0  0  0  0  0  0  0  0  0
   -0.9117   -1.0795   -0.7676 H   0  0  0  0  0  0  0  0  0  0  0  0
   -2.2160   -4.2358    1.8627 H   0  0  0  0  0  0  0  0  0  0  0  0
   -0.8775   -5.7494   -0.3071 H   0  0  0  0  0  0  0  0  0  0  0  0
    3.4589   -6.7504   -1.4899 H   0  0  0  0  0  0  0  0  0  0  0  0
    5.5651   -5.4610   -1.6825 H   0  0  0  0  0  0  0  0  0  0  0  0
    5.5884   -3.0390   -1.1753 H   0  0  0  0  0  0  0  0  0  0  0  0
  1  2  1  0
  2  3  1  0
  3  4  2  0
  4  5  1  0
  5  6  2  0
  6  7  1  0
  6  8  1  0
  8  9  1  0
  9 10  1  0
 10 11  1  0
 11 12  1  0
 12 13  1  0
 13 14  1  0
 14 15  1  0
 15 16  1  0
 16 17  1  0
 17 18  1  0
 18 19  1  0
 19 20  1  0
 20 21  1  0
 21 22  1  0
 22 23  1  0
 23 24  1  0
 19 25  1  0
 25 26  1  0
 26 27  2  0
 27 28  1  0
 28 29  2  0
 27 30  1  0
 30 31  2  0
 31 32  1  0
 32 33  2  0
 33 34  1  0
 34 35  2  0
 35 36  1  0
 36 37  2  0
 37 38  1  0
 38 39  2  0
  8  2  2  0
 15 10  1  0
 24 19  1  0
 29 25  1  0
 39 30  1  0
 37  4  1  0
 38 33  1  0
  3 40  1  0
  5 41  1  0
  9 42  1  0
  9 43  1  0
 11 44  1  0
 11 45  1  0
 12 46  1  0
 12 47  1  0
 14 48  1  0
 14 49  1  0
 15 50  1  0
 16 51  1  0
 16 52  1  0
 17 53  1  0
 18 54  1  0
 18 55  1  0
 20 56  1  0
 20 57  1  0
 21 58  1  0
 21 59  1  0
 22 60  1  0
 23 61  1  0
 23 62  1  0
 24 63  1  0
 24 64  1  0
 26 65  1  0
 28 66  1  0
 31 67  1  0
 34 68  1  0
 35 69  1  0
 36 70  1  0
M  END
>  <candidate_id>  (93) 
CAND_3b164e0480

>  <source_generator>  (93) 
v5_3_model_guided_macrocycle

>  <parent_mol_id>  (93) 
JAK2_2dc2722230

>  <canonical_smiles>  (93) 
Fc1cc2cc(F)c1CN1CCOCC1CNCC1(CCNCC1)n1cc(cn1)-c1cnc3cccc-2c3n1

>  <inchikey>  (93) 
BFRBRWWDNZLFGY-UHFFFAOYSA-N

>  <valid_rdkit>  (93) 
True

>  <unique_flag>  (93) 
True

>  <novel_flag>  (93) 
True

>  <mw>  (93) 
531.611

>  <logp>  (93) 
3.3212

>  <tpsa>  (93) 
80.13

>  <hbd>  (93) 
2

>  <hba>  (93) 
7

>  <rotatable_bonds>  (93) 
0

>  <qed>  (93) 
0.3605

>  <sa_score>  (93) 
4.659

>  <murcko_scaffold>  (93) 
c1cc2c3nc(cnc3c1)-c1cnn(c1)C1(CCNCC1)CNCC1COCCN1Cc1ccc-2cc1

>  <max_ring_size>  (93) 
18

>  <has_macrocycle_12_20>  (93) 
True

>  <has_constrained_ring_8_11>  (93) 
False

>  <passes_basic_filters>  (93) 
True

>  <generation_notes>  (93) 
v5_3_model_guided_anchor_pair=16-31;anchor_scores=0.691,0.079;linker_length=3;target_ring=17;linker_prob=0.539;chemotype=aza

$$$$
CAND_9f32e71b10
     RDKit          3D

 69 75  0  0  0  0  0  0  0  0999 V2000
   -2.1789    0.0486   -2.4421 F   0  0  0  0  0  0  0  0  0  0  0  0
   -2.5864   -0.3612   -1.2317 C   0  0  0  0  0  0  0  0  0  0  0  0
   -2.5302   -1.7215   -0.9432 C   0  0  0  0  0  0  0  0  0  0  0  0
   -2.9360   -2.2092    0.3086 C   0  0  0  0  0  0  0  0  0  0  0  0
   -3.4727   -1.2924    1.2205 C   0  0  0  0  0  0  0  0  0  0  0  0
   -3.5326    0.0712    0.9090 C   0  0  0  0  0  0  0  0  0  0  0  0
   -4.0619    0.8940    1.8256 F   0  0  0  0  0  0  0  0  0  0  0  0
   -3.0433    0.5711   -0.2997 C   0  0  0  0  0  0  0  0  0  0  0  0
   -3.0672    2.0248   -0.6901 C   0  0  0  0  0  0  0  0  0  0  0  0
   -2.8953    3.0005    0.3950 N   0  0  0  0  0  0  0  0  0  0  0  0
   -3.5760    4.2655    0.0140 C   0  0  0  0  0  0  0  0  0  0  0  0
   -3.0564    5.4848    0.7842 C   0  0  0  0  0  0  0  0  0  0  0  0
   -1.6733    5.7468    0.5164 O   0  0  0  0  0  0  0  0  0  0  0  0
   -0.9180    4.5594    0.2200 C   0  0  0  0  0  0  0  0  0  0  0  0
   -1.5094    3.2841    0.8724 C   0  0  0  0  0  0  0  0  0  0  0  0
   -0.4621    2.1459    0.9824 C   0  0  0  0  0  0  0  0  0  0  0  0
    0.5064    1.7257   -0.5169 S   0  0  0  0  0  0  0  0  0  0  0  0
    2.1381    1.3823    0.2796 C   0  0  0  0  0  0  0  0  0  0  0  0
    3.1893    0.5026   -0.4888 C   0  0  0  0  0  0  0  0  0  0  0  0
    3.2413    0.8778   -1.9938 C   0  0  0  0  0  0  0  0  0  0  0  0
    4.6593    0.7901   -2.5485 C   0  0  0  0  0  0  0  0  0  0  0  0
    5.5575    1.7485   -1.9000 N   0  0  0  0  0  0  0  0  0  0  0  0
    5.2946    1.9543   -0.4788 C   0  0  0  0  0  0  0  0  0  0  0  0
    4.5756    0.7831    0.1830 C   0  0  0  0  0  0  0  0  0  0  0  0
    2.8880   -0.9478   -0.3594 N   0  0  0  0  0  0  0  0  0  0  0  0
    1.7263   -1.5401    0.0414 C   0  0  0  0  0  0  0  0  0  0  0  0
    1.9166   -2.9074   -0.0007 C   0  0  0  0  0  0  0  0  0  0  0  0
    3.2378   -3.0467   -0.4559 C   0  0  0  0  0  0  0  0  0  0  0  0
    3.8289   -1.8703   -0.6858 N   0  0  0  0  0  0  0  0  0  0  0  0
    0.8766   -3.8547    0.3354 C   0  0  0  0  0  0  0  0  0  0  0  0
    1.0874   -5.1908    0.6052 C   0  0  0  0  0  0  0  0  0  0  0  0
    0.0725   -6.0372    0.9236 N   0  0  0  0  0  0  0  0  0  0  0  0
   -1.1737   -5.5119    0.9521 C   0  0  0  0  0  0  0  0  0  0  0  0
   -2.2605   -6.3147    1.2715 C   0  0  0  0  0  0  0  0  0  0  0  0
   -3.5597   -5.8043    1.3029 C   0  0  0  0  0  0  0  0  0  0  0  0
   -3.7853   -4.4646    0.9991 C   0  0  0  0  0  0  0  0  0  0  0  0
   -2.7119   -3.6265    0.6650 C   0  0  0  0  0  0  0  0  0  0  0  0
   -1.4040   -4.1483    0.6593 C   0  0  0  0  0  0  0  0  0  0  0  0
   -0.3687   -3.3385    0.3707 N   0  0  0  0  0  0  0  0  0  0  0  0
   -2.1161   -2.3907   -1.6939 H   0  0  0  0  0  0  0  0  0  0  0  0
   -3.8133   -1.6144    2.2010 H   0  0  0  0  0  0  0  0  0  0  0  0
   -2.3450    2.2352   -1.4882 H   0  0  0  0  0  0  0  0  0  0  0  0
   -4.0599    2.1622   -1.1436 H   0  0  0  0  0  0  0  0  0  0  0  0
   -4.6521    4.1547    0.1886 H   0  0  0  0  0  0  0  0  0  0  0  0
   -3.4258    4.4640   -1.0562 H   0  0  0  0  0  0  0  0  0  0  0  0
   -3.1849    5.3555    1.8651 H   0  0  0  0  0  0  0  0  0  0  0  0
   -3.6194    6.3789    0.4973 H   0  0  0  0  0  0  0  0  0  0  0  0
    0.1001    4.7438    0.5794 H   0  0  0  0  0  0  0  0  0  0  0  0
   -0.8681    4.4604   -0.8706 H   0  0  0  0  0  0  0  0  0  0  0  0
   -1.6819    3.5509    1.9267 H   0  0  0  0  0  0  0  0  0  0  0  0
    0.2608    2.4671    1.7429 H   0  0  0  0  0  0  0  0  0  0  0  0
   -0.9139    1.2322    1.3782 H   0  0  0  0  0  0  0  0  0  0  0  0
    1.9564    0.9465    1.2698 H   0  0  0  0  0  0  0  0  0  0  0  0
    2.5620    2.3780    0.4537 H   0  0  0  0  0  0  0  0  0  0  0  0
    2.5759    0.2359   -2.5849 H   0  0  0  0  0  0  0  0  0  0  0  0
    2.8951    1.9083   -2.1484 H   0  0  0  0  0  0  0  0  0  0  0  0
    5.0573   -0.2247   -2.4404 H   0  0  0  0  0  0  0  0  0  0  0  0
    4.6451    1.0064   -3.6223 H   0  0  0  0  0  0  0  0  0  0  0  0
    6.5191    1.4346   -2.0376 H   0  0  0  0  0  0  0  0  0  0  0  0
    6.2441    2.1408    0.0361 H   0  0  0  0  0  0  0  0  0  0  0  0
    4.7036    2.8699   -0.3635 H   0  0  0  0  0  0  0  0  0  0  0  0
    4.4483    0.9830    1.2549 H   0  0  0  0  0  0  0  0  0  0  0  0
    5.2465   -0.0836    0.1340 H   0  0  0  0  0  0  0  0  0  0  0  0
    0.8446   -0.9804    0.3162 H   0  0  0  0  0  0  0  0  0  0  0  0
    3.7994   -3.9513   -0.6496 H   0  0  0  0  0  0  0  0  0  0  0  0
    2.0744   -5.6376    0.5889 H   0  0  0  0  0  0  0  0  0  0  0  0
   -2.0893   -7.3640    1.5010 H   0  0  0  0  0  0  0  0  0  0  0  0
   -4.3931   -6.4558    1.5557 H   0  0  0  0  0  0  0  0  0  0  0  0
   -4.8028   -4.0786    1.0080 H   0  0  0  0  0  0  0  0  0  0  0  0
  1  2  1  0
  2  3  1  0
  3  4  2  0
  4  5  1  0
  5  6  2  0
  6  7  1  0
  6  8  1  0
  8  9  1  0
  9 10  1  0
 10 11  1  0
 11 12  1  0
 12 13  1  0
 13 14  1  0
 14 15  1  0
 15 16  1  0
 16 17  1  0
 17 18  1  0
 18 19  1  0
 19 20  1  0
 20 21  1  0
 21 22  1  0
 22 23  1  0
 23 24  1  0
 19 25  1  0
 25 26  1  0
 26 27  2  0
 27 28  1  0
 28 29  2  0
 27 30  1  0
 30 31  2  0
 31 32  1  0
 32 33  2  0
 33 34  1  0
 34 35  2  0
 35 36  1  0
 36 37  2  0
 37 38  1  0
 38 39  2  0
  8  2  2  0
 15 10  1  0
 24 19  1  0
 29 25  1  0
 39 30  1  0
 37  4  1  0
 38 33  1  0
  3 40  1  0
  5 41  1  0
  9 42  1  0
  9 43  1  0
 11 44  1  0
 11 45  1  0
 12 46  1  0
 12 47  1  0
 14 48  1  0
 14 49  1  0
 15 50  1  0
 16 51  1  0
 16 52  1  0
 18 53  1  0
 18 54  1  0
 20 55  1  0
 20 56  1  0
 21 57  1  0
 21 58  1  0
 22 59  1  0
 23 60  1  0
 23 61  1  0
 24 62  1  0
 24 63  1  0
 26 64  1  0
 28 65  1  0
 31 66  1  0
 34 67  1  0
 35 68  1  0
 36 69  1  0
M  END
>  <candidate_id>  (94) 
CAND_9f32e71b10

>  <source_generator>  (94) 
v5_3_model_guided_macrocycle

>  <parent_mol_id>  (94) 
JAK2_2dc2722230

>  <canonical_smiles>  (94) 
Fc1cc2cc(F)c1CN1CCOCC1CSCC1(CCNCC1)n1cc(cn1)-c1cnc3cccc-2c3n1

>  <inchikey>  (94) 
XOGPNLWCYTULDB-UHFFFAOYSA-N

>  <valid_rdkit>  (94) 
True

>  <unique_flag>  (94) 
True

>  <novel_flag>  (94) 
True

>  <mw>  (94) 
548.663

>  <logp>  (94) 
4.4648

>  <tpsa>  (94) 
68.1

>  <hbd>  (94) 
1

>  <hba>  (94) 
7

>  <rotatable_bonds>  (94) 
0

>  <qed>  (94) 
0.348

>  <sa_score>  (94) 
4.754

>  <murcko_scaffold>  (94) 
c1cc2c3nc(cnc3c1)-c1cnn(c1)C1(CCNCC1)CSCC1COCCN1Cc1ccc-2cc1

>  <max_ring_size>  (94) 
18

>  <has_macrocycle_12_20>  (94) 
True

>  <has_constrained_ring_8_11>  (94) 
False

>  <passes_basic_filters>  (94) 
True

>  <generation_notes>  (94) 
v5_3_model_guided_anchor_pair=16-31;anchor_scores=0.691,0.079;linker_length=3;target_ring=17;linker_prob=0.539;chemotype=thioether

$$$$
CAND_c5284988bc
     RDKit          3D

 69 75  0  0  0  0  0  0  0  0999 V2000
    1.5326   -0.5726    2.3853 F   0  0  0  0  0  0  0  0  0  0  0  0
    2.3782   -0.1062    1.4546 C   0  0  0  0  0  0  0  0  0  0  0  0
    2.4255    1.2686    1.2301 C   0  0  0  0  0  0  0  0  0  0  0  0
    3.2531    1.8114    0.2329 C   0  0  0  0  0  0  0  0  0  0  0  0
    4.0735    0.9252   -0.4804 C   0  0  0  0  0  0  0  0  0  0  0  0
    4.0273   -0.4492   -0.2295 C   0  0  0  0  0  0  0  0  0  0  0  0
    4.8342   -1.2517   -0.9385 F   0  0  0  0  0  0  0  0  0  0  0  0
    3.1656   -0.9915    0.7237 C   0  0  0  0  0  0  0  0  0  0  0  0
    3.0798   -2.4751    0.9592 C   0  0  0  0  0  0  0  0  0  0  0  0
    2.4817   -3.2278   -0.1563 N   0  0  0  0  0  0  0  0  0  0  0  0
    2.5943   -4.6883    0.0599 C   0  0  0  0  0  0  0  0  0  0  0  0
    1.2822   -5.3436    0.5192 C   0  0  0  0  0  0  0  0  0  0  0  0
    0.2086   -5.1669   -0.4135 O   0  0  0  0  0  0  0  0  0  0  0  0
    0.3271   -3.9587   -1.1927 C   0  0  0  0  0  0  0  0  0  0  0  0
   -1.0640   -3.5647   -1.7204 C   0  0  0  0  0  0  0  0  0  0  0  0
   -2.2627   -2.9670   -0.4657 S   0  0  0  0  0  0  0  0  0  0  0  0
   -2.2353   -1.1776   -0.8588 C   0  0  0  0  0  0  0  0  0  0  0  0
   -3.1492   -0.2445   -0.0042 C   0  0  0  0  0  0  0  0  0  0  0  0
   -2.9346   -0.4193    1.5289 C   0  0  0  0  0  0  0  0  0  0  0  0
   -4.0628   -1.1970    2.1991 C   0  0  0  0  0  0  0  0  0  0  0  0
   -5.3677   -0.5675    2.0207 N   0  0  0  0  0  0  0  0  0  0  0  0
   -5.5646    0.0589    0.7121 C   0  0  0  0  0  0  0  0  0  0  0  0
   -4.6400   -0.5089   -0.3610 C   0  0  0  0  0  0  0  0  0  0  0  0
   -2.7393    1.1464   -0.3607 N   0  0  0  0  0  0  0  0  0  0  0  0
   -1.5072    1.6945   -0.1255 C   0  0  0  0  0  0  0  0  0  0  0  0
   -1.4908    2.9371   -0.7237 C   0  0  0  0  0  0  0  0  0  0  0  0
   -2.7879    3.0685   -1.2555 C   0  0  0  0  0  0  0  0  0  0  0  0
   -3.5472    1.9882   -1.0406 N   0  0  0  0  0  0  0  0  0  0  0  0
   -0.3168    3.7816   -0.7501 C   0  0  0  0  0  0  0  0  0  0  0  0
   -0.3291    5.1204   -1.0809 C   0  0  0  0  0  0  0  0  0  0  0  0
    0.7990    5.8751   -1.0908 N   0  0  0  0  0  0  0  0  0  0  0  0
    1.9524    5.2523   -0.7627 C   0  0  0  0  0  0  0  0  0  0  0  0
    3.1385    5.9719   -0.7576 C   0  0  0  0  0  0  0  0  0  0  0  0
    4.3529    5.3700   -0.4315 C   0  0  0  0  0  0  0  0  0  0  0  0
    4.3869    4.0180   -0.1051 C   0  0  0  0  0  0  0  0  0  0  0  0
    3.2066    3.2557   -0.0968 C   0  0  0  0  0  0  0  0  0  0  0  0
    1.9840    3.8775   -0.4254 C   0  0  0  0  0  0  0  0  0  0  0  0
    0.8404    3.1630   -0.4277 N   0  0  0  0  0  0  0  0  0  0  0  0
    1.0709   -2.8457   -0.4188 C   0  0  0  0  0  0  0  0  0  0  0  0
    1.7712    1.9097    1.8167 H   0  0  0  0  0  0  0  0  0  0  0  0
    4.7337    1.2830   -1.2664 H   0  0  0  0  0  0  0  0  0  0  0  0
    4.1089   -2.8229    1.1237 H   0  0  0  0  0  0  0  0  0  0  0  0
    2.5429   -2.6868    1.8933 H   0  0  0  0  0  0  0  0  0  0  0  0
    2.8806   -5.1296   -0.9032 H   0  0  0  0  0  0  0  0  0  0  0  0
    3.4007   -4.9371    0.7598 H   0  0  0  0  0  0  0  0  0  0  0  0
    1.4267   -6.4209    0.6492 H   0  0  0  0  0  0  0  0  0  0  0  0
    0.9645   -4.9398    1.4875 H   0  0  0  0  0  0  0  0  0  0  0  0
    0.9212   -4.2246   -2.0783 H   0  0  0  0  0  0  0  0  0  0  0  0
   -1.5284   -4.4460   -2.1769 H   0  0  0  0  0  0  0  0  0  0  0  0
   -0.9615   -2.8102   -2.5073 H   0  0  0  0  0  0  0  0  0  0  0  0
   -2.4983   -1.0631   -1.9179 H   0  0  0  0  0  0  0  0  0  0  0  0
   -1.1878   -0.8754   -0.7581 H   0  0  0  0  0  0  0  0  0  0  0  0
   -1.9734   -0.9051    1.7372 H   0  0  0  0  0  0  0  0  0  0  0  0
   -2.8791    0.5596    2.0267 H   0  0  0  0  0  0  0  0  0  0  0  0
   -3.8588   -1.2863    3.2723 H   0  0  0  0  0  0  0  0  0  0  0  0
   -4.1062   -2.2225    1.8178 H   0  0  0  0  0  0  0  0  0  0  0  0
   -5.5357    0.1238    2.7515 H   0  0  0  0  0  0  0  0  0  0  0  0
   -6.6081   -0.0881    0.4134 H   0  0  0  0  0  0  0  0  0  0  0  0
   -5.4161    1.1406    0.8067 H   0  0  0  0  0  0  0  0  0  0  0  0
   -4.9025   -0.0921   -1.3408 H   0  0  0  0  0  0  0  0  0  0  0  0
   -4.8363   -1.5853   -0.4465 H   0  0  0  0  0  0  0  0  0  0  0  0
   -0.7373    1.1559    0.4112 H   0  0  0  0  0  0  0  0  0  0  0  0
   -3.2149    3.8939   -1.8104 H   0  0  0  0  0  0  0  0  0  0  0  0
   -1.2394    5.6462   -1.3436 H   0  0  0  0  0  0  0  0  0  0  0  0
    3.1142    7.0284   -1.0154 H   0  0  0  0  0  0  0  0  0  0  0  0
    5.2687    5.9566   -0.4338 H   0  0  0  0  0  0  0  0  0  0  0  0
    5.3401    3.5594    0.1521 H   0  0  0  0  0  0  0  0  0  0  0  0
    0.5553   -2.6621    0.5323 H   0  0  0  0  0  0  0  0  0  0  0  0
    1.0587   -1.9198   -1.0041 H   0  0  0  0  0  0  0  0  0  0  0  0
  1  2  1  0
  2  3  1  0
  3  4  2  0
  4  5  1  0
  5  6  2  0
  6  7  1  0
  6  8  1  0
  8  9  1  0
  9 10  1  0
 10 11  1  0
 11 12  1  0
 12 13  1  0
 13 14  1  0
 14 15  1  0
 15 16  1  0
 16 17  1  0
 17 18  1  0
 18 19  1  0
 19 20  1  0
 20 21  1  0
 21 22  1  0
 22 23  1  0
 18 24  1  0
 24 25  1  0
 25 26  2  0
 26 27  1  0
 27 28  2  0
 26 29  1  0
 29 30  2  0
 30 31  1  0
 31 32  2  0
 32 33  1  0
 33 34  2  0
 34 35  1  0
 35 36  2  0
 36 37  1  0
 37 38  2  0
 14 39  1  0
  8  2  2  0
 39 10  1  0
 36  4  1  0
 23 18  1  0
 28 24  1  0
 38 29  1  0
 37 32  1  0
  3 40  1  0
  5 41  1  0
  9 42  1  0
  9 43  1  0
 11 44  1  0
 11 45  1  0
 12 46  1  0
 12 47  1  0
 14 48  1  0
 15 49  1  0
 15 50  1  0
 17 51  1  0
 17 52  1  0
 19 53  1  0
 19 54  1  0
 20 55  1  0
 20 56  1  0
 21 57  1  0
 22 58  1  0
 22 59  1  0
 23 60  1  0
 23 61  1  0
 25 62  1  0
 27 63  1  0
 30 64  1  0
 33 65  1  0
 34 66  1  0
 35 67  1  0
 39 68  1  0
 39 69  1  0
M  END
>  <candidate_id>  (95) 
CAND_c5284988bc

>  <source_generator>  (95) 
v5_3_model_guided_macrocycle

>  <parent_mol_id>  (95) 
JAK2_2dc2722230

>  <canonical_smiles>  (95) 
Fc1cc2cc(F)c1CN1CCOC(CSCC3(CCNCC3)n3cc(cn3)-c3cnc4cccc-2c4n3)C1

>  <inchikey>  (95) 
UMDQZSGINFDZSR-UHFFFAOYSA-N

>  <valid_rdkit>  (95) 
True

>  <unique_flag>  (95) 
True

>  <novel_flag>  (95) 
True

>  <mw>  (95) 
548.663

>  <logp>  (95) 
4.4648

>  <tpsa>  (95) 
68.1

>  <hbd>  (95) 
1

>  <hba>  (95) 
7

>  <rotatable_bonds>  (95) 
0

>  <qed>  (95) 
0.348

>  <sa_score>  (95) 
5.004

>  <murcko_scaffold>  (95) 
c1cc2c3nc(cnc3c1)-c1cnn(c1)C1(CCNCC1)CSCC1CN(CCO1)Cc1ccc-2cc1

>  <max_ring_size>  (95) 
19

>  <has_macrocycle_12_20>  (95) 
True

>  <has_constrained_ring_8_11>  (95) 
False

>  <passes_basic_filters>  (95) 
True

>  <generation_notes>  (95) 
v5_3_model_guided_anchor_pair=16-32;anchor_scores=0.691,0.079;linker_length=3;target_ring=18;linker_prob=0.496;chemotype=thioether

$$$$
CAND_d26b3db662
     RDKit          3D

 69 75  0  0  0  0  0  0  0  0999 V2000
    1.4762   -0.6997    2.4850 F   0  0  0  0  0  0  0  0  0  0  0  0
    2.3433   -0.4148    1.5024 C   0  0  0  0  0  0  0  0  0  0  0  0
    2.6696    0.9202    1.2733 C   0  0  0  0  0  0  0  0  0  0  0  0
    3.5282    1.2852    0.2232 C   0  0  0  0  0  0  0  0  0  0  0  0
    4.1004    0.2531   -0.5344 C   0  0  0  0  0  0  0  0  0  0  0  0
    3.7760   -1.0837   -0.2788 C   0  0  0  0  0  0  0  0  0  0  0  0
    4.3478   -2.0316   -1.0351 F   0  0  0  0  0  0  0  0  0  0  0  0
    2.8725   -1.4402    0.7224 C   0  0  0  0  0  0  0  0  0  0  0  0
    2.4718   -2.8703    0.9679 C   0  0  0  0  0  0  0  0  0  0  0  0
    1.7113   -3.4971   -0.1284 N   0  0  0  0  0  0  0  0  0  0  0  0
    1.4163   -4.9165    0.1744 C   0  0  0  0  0  0  0  0  0  0  0  0
   -0.0180   -5.1478    0.6802 C   0  0  0  0  0  0  0  0  0  0  0  0
   -1.0262   -4.7221   -0.2471 O   0  0  0  0  0  0  0  0  0  0  0  0
   -0.5667   -3.6928   -1.1488 C   0  0  0  0  0  0  0  0  0  0  0  0
   -1.7856   -2.9445   -1.7194 C   0  0  0  0  0  0  0  0  0  0  0  0
   -2.4150   -2.0821   -0.7614 O   0  0  0  0  0  0  0  0  0  0  0  0
   -2.2753   -0.6981   -1.1012 C   0  0  0  0  0  0  0  0  0  0  0  0
   -2.9708    0.2314   -0.0669 C   0  0  0  0  0  0  0  0  0  0  0  0
   -2.6472   -0.2012    1.3932 C   0  0  0  0  0  0  0  0  0  0  0  0
   -3.7697   -1.0247    2.0131 C   0  0  0  0  0  0  0  0  0  0  0  0
   -5.0123   -0.2578    2.1004 N   0  0  0  0  0  0  0  0  0  0  0  0
   -5.2723    0.5944    0.9385 C   0  0  0  0  0  0  0  0  0  0  0  0
   -4.5049    0.1587   -0.3036 C   0  0  0  0  0  0  0  0  0  0  0  0
   -2.4188    1.5882   -0.2964 N   0  0  0  0  0  0  0  0  0  0  0  0
   -1.1213    1.9535   -0.0631 C   0  0  0  0  0  0  0  0  0  0  0  0
   -0.9401    3.2041   -0.6146 C   0  0  0  0  0  0  0  0  0  0  0  0
   -2.2180    3.5400   -1.1016 C   0  0  0  0  0  0  0  0  0  0  0  0
   -3.1159    2.5631   -0.9198 N   0  0  0  0  0  0  0  0  0  0  0  0
    0.3527    3.8512   -0.6600 C   0  0  0  0  0  0  0  0  0  0  0  0
    0.5615    5.1736   -0.9875 C   0  0  0  0  0  0  0  0  0  0  0  0
    1.8043    5.7210   -1.0344 N   0  0  0  0  0  0  0  0  0  0  0  0
    2.8439    4.9045   -0.7465 C   0  0  0  0  0  0  0  0  0  0  0  0
    4.1406    5.3978   -0.7829 C   0  0  0  0  0  0  0  0  0  0  0  0
    5.2379    4.5838   -0.4994 C   0  0  0  0  0  0  0  0  0  0  0  0
    5.0407    3.2456   -0.1706 C   0  0  0  0  0  0  0  0  0  0  0  0
    3.7439    2.7113   -0.1181 C   0  0  0  0  0  0  0  0  0  0  0  0
    2.6449    3.5452   -0.4095 C   0  0  0  0  0  0  0  0  0  0  0  0
    1.3968    3.0422   -0.3762 N   0  0  0  0  0  0  0  0  0  0  0  0
    0.4595   -2.7685   -0.4568 C   0  0  0  0  0  0  0  0  0  0  0  0
    2.1997    1.6795    1.8948 H   0  0  0  0  0  0  0  0  0  0  0  0
    4.7716    0.4721   -1.3607 H   0  0  0  0  0  0  0  0  0  0  0  0
    3.4012   -3.4333    1.1292 H   0  0  0  0  0  0  0  0  0  0  0  0
    1.9084   -2.9498    1.9070 H   0  0  0  0  0  0  0  0  0  0  0  0
    1.5475   -5.4762   -0.7604 H   0  0  0  0  0  0  0  0  0  0  0  0
    2.1375   -5.3395    0.8838 H   0  0  0  0  0  0  0  0  0  0  0  0
   -0.1838   -4.6199    1.6265 H   0  0  0  0  0  0  0  0  0  0  0  0
   -0.1805   -6.2134    0.8712 H   0  0  0  0  0  0  0  0  0  0  0  0
   -0.0907   -4.2072   -1.9943 H   0  0  0  0  0  0  0  0  0  0  0  0
   -1.4890   -2.3857   -2.6156 H   0  0  0  0  0  0  0  0  0  0  0  0
   -2.5454   -3.6737   -2.0216 H   0  0  0  0  0  0  0  0  0  0  0  0
   -2.6990   -0.5241   -2.0995 H   0  0  0  0  0  0  0  0  0  0  0  0
   -1.2028   -0.4810   -1.1617 H   0  0  0  0  0  0  0  0  0  0  0  0
   -1.7077   -0.7661    1.4342 H   0  0  0  0  0  0  0  0  0  0  0  0
   -2.4898    0.6794    2.0325 H   0  0  0  0  0  0  0  0  0  0  0  0
   -3.4815   -1.3331    3.0239 H   0  0  0  0  0  0  0  0  0  0  0  0
   -3.9348   -1.9448    1.4406 H   0  0  0  0  0  0  0  0  0  0  0  0
   -5.7909   -0.9016    2.2426 H   0  0  0  0  0  0  0  0  0  0  0  0
   -6.3478    0.5878    0.7277 H   0  0  0  0  0  0  0  0  0  0  0  0
   -5.0158    1.6279    1.1978 H   0  0  0  0  0  0  0  0  0  0  0  0
   -4.8155    0.7620   -1.1647 H   0  0  0  0  0  0  0  0  0  0  0  0
   -4.8036   -0.8694   -0.5518 H   0  0  0  0  0  0  0  0  0  0  0  0
   -0.4219    1.2839    0.4201 H   0  0  0  0  0  0  0  0  0  0  0  0
   -2.5359    4.4405   -1.6110 H   0  0  0  0  0  0  0  0  0  0  0  0
   -0.2520    5.8497   -1.2227 H   0  0  0  0  0  0  0  0  0  0  0  0
    4.2985    6.4426   -1.0407 H   0  0  0  0  0  0  0  0  0  0  0  0
    6.2437    4.9962   -0.5351 H   0  0  0  0  0  0  0  0  0  0  0  0
    5.9030    2.6209    0.0547 H   0  0  0  0  0  0  0  0  0  0  0  0
    0.0084   -2.3670    0.4596 H   0  0  0  0  0  0  0  0  0  0  0  0
    0.7071   -1.9311   -1.1180 H   0  0  0  0  0  0  0  0  0  0  0  0
  1  2  1  0
  2  3  1  0
  3  4  2  0
  4  5  1  0
  5  6  2  0
  6  7  1  0
  6  8  1  0
  8  9  1  0
  9 10  1  0
 10 11  1  0
 11 12  1  0
 12 13  1  0
 13 14  1  0
 14 15  1  0
 15 16  1  0
 16 17  1  0
 17 18  1  0
 18 19  1  0
 19 20  1  0
 20 21  1  0
 21 22  1  0
 22 23  1  0
 18 24  1  0
 24 25  1  0
 25 26  2  0
 26 27  1  0
 27 28  2  0
 26 29  1  0
 29 30  2  0
 30 31  1  0
 31 32  2  0
 32 33  1  0
 33 34  2  0
 34 35  1  0
 35 36  2  0
 36 37  1  0
 37 38  2  0
 14 39  1  0
  8  2  2  0
 39 10  1  0
 36  4  1  0
 23 18  1  0
 28 24  1  0
 38 29  1  0
 37 32  1  0
  3 40  1  0
  5 41  1  0
  9 42  1  0
  9 43  1  0
 11 44  1  0
 11 45  1  0
 12 46  1  0
 12 47  1  0
 14 48  1  0
 15 49  1  0
 15 50  1  0
 17 51  1  0
 17 52  1  0
 19 53  1  0
 19 54  1  0
 20 55  1  0
 20 56  1  0
 21 57  1  0
 22 58  1  0
 22 59  1  0
 23 60  1  0
 23 61  1  0
 25 62  1  0
 27 63  1  0
 30 64  1  0
 33 65  1  0
 34 66  1  0
 35 67  1  0
 39 68  1  0
 39 69  1  0
M  END
>  <candidate_id>  (96) 
CAND_d26b3db662

>  <source_generator>  (96) 
v5_3_model_guided_macrocycle

>  <parent_mol_id>  (96) 
JAK2_2dc2722230

>  <canonical_smiles>  (96) 
Fc1cc2cc(F)c1CN1CCOC(COCC3(CCNCC3)n3cc(cn3)-c3cnc4cccc-2c4n3)C1

>  <inchikey>  (96) 
FWHUWWMHDRQXRG-UHFFFAOYSA-N

>  <valid_rdkit>  (96) 
True

>  <unique_flag>  (96) 
True

>  <novel_flag>  (96) 
True

>  <mw>  (96) 
532.595

>  <logp>  (96) 
3.7482

>  <tpsa>  (96) 
77.33

>  <hbd>  (96) 
1

>  <hba>  (96) 
7

>  <rotatable_bonds>  (96) 
0

>  <qed>  (96) 
0.3698

>  <sa_score>  (96) 
4.914

>  <murcko_scaffold>  (96) 
c1cc2c3nc(cnc3c1)-c1cnn(c1)C1(CCNCC1)COCC1CN(CCO1)Cc1ccc-2cc1

>  <max_ring_size>  (96) 
19

>  <has_macrocycle_12_20>  (96) 
True

>  <has_constrained_ring_8_11>  (96) 
False

>  <passes_basic_filters>  (96) 
True

>  <generation_notes>  (96) 
v5_3_model_guided_anchor_pair=16-32;anchor_scores=0.691,0.079;linker_length=3;target_ring=18;linker_prob=0.496;chemotype=oxa

$$$$
CAND_1675c88065
     RDKit          3D

 70 76  0  0  0  0  0  0  0  0999 V2000
    3.4900   -1.7315   -1.8252 F   0  0  0  0  0  0  0  0  0  0  0  0
    3.5714   -1.0053   -0.7008 C   0  0  0  0  0  0  0  0  0  0  0  0
    3.7777    0.3670   -0.8084 C   0  0  0  0  0  0  0  0  0  0  0  0
    3.8278    1.1677    0.3413 C   0  0  0  0  0  0  0  0  0  0  0  0
    3.7122    0.5494    1.5929 C   0  0  0  0  0  0  0  0  0  0  0  0
    3.5025   -0.8261    1.6795 C   0  0  0  0  0  0  0  0  0  0  0  0
    3.3725   -1.3774    2.8949 F   0  0  0  0  0  0  0  0  0  0  0  0
    3.4082   -1.6226    0.5382 C   0  0  0  0  0  0  0  0  0  0  0  0
    3.0620   -3.0833    0.6347 C   0  0  0  0  0  0  0  0  0  0  0  0
    1.6284   -3.3117    0.8815 N   0  0  0  0  0  0  0  0  0  0  0  0
    1.3397   -4.7231    1.2054 C   0  0  0  0  0  0  0  0  0  0  0  0
    0.6924   -5.4956    0.0478 C   0  0  0  0  0  0  0  0  0  0  0  0
   -0.5466   -4.9229   -0.3883 O   0  0  0  0  0  0  0  0  0  0  0  0
   -0.6181   -3.4909   -0.2056 C   0  0  0  0  0  0  0  0  0  0  0  0
   -1.5579   -2.9380   -1.3021 C   0  0  0  0  0  0  0  0  0  0  0  0
   -1.8765   -1.5044   -1.3036 N   0  0  0  0  0  0  0  0  0  0  0  0
   -2.4324   -1.0259   -0.0309 C   0  0  0  0  0  0  0  0  0  0  0  0
   -3.2407    0.3163   -0.1343 C   0  0  0  0  0  0  0  0  0  0  0  0
   -4.4281    0.0789   -1.1195 C   0  0  0  0  0  0  0  0  0  0  0  0
   -5.6677    0.8681   -0.7109 C   0  0  0  0  0  0  0  0  0  0  0  0
   -6.1724    0.4816    0.6086 N   0  0  0  0  0  0  0  0  0  0  0  0
   -5.1424    0.0326    1.5403 C   0  0  0  0  0  0  0  0  0  0  0  0
   -3.7873    0.6804    1.2759 C   0  0  0  0  0  0  0  0  0  0  0  0
   -2.3821    1.4396   -0.5748 N   0  0  0  0  0  0  0  0  0  0  0  0
   -1.0868    1.7016   -0.2051 C   0  0  0  0  0  0  0  0  0  0  0  0
   -0.7510    2.9274   -0.7474 C   0  0  0  0  0  0  0  0  0  0  0  0
   -1.9185    3.3297   -1.4234 C   0  0  0  0  0  0  0  0  0  0  0  0
   -2.9096    2.4459   -1.3112 N   0  0  0  0  0  0  0  0  0  0  0  0
    0.5276    3.5856   -0.5780 C   0  0  0  0  0  0  0  0  0  0  0  0
    0.6825    4.9528   -0.7244 C   0  0  0  0  0  0  0  0  0  0  0  0
    1.8725    5.5781   -0.5548 N   0  0  0  0  0  0  0  0  0  0  0  0
    2.9219    4.7971   -0.2354 C   0  0  0  0  0  0  0  0  0  0  0  0
    4.1627    5.3891   -0.0437 C   0  0  0  0  0  0  0  0  0  0  0  0
    5.2868    4.6346    0.2846 C   0  0  0  0  0  0  0  0  0  0  0  0
    5.1703    3.2569    0.4171 C   0  0  0  0  0  0  0  0  0  0  0  0
    3.9285    2.6291    0.2249 C   0  0  0  0  0  0  0  0  0  0  0  0
    2.7887    3.3931   -0.0922 C   0  0  0  0  0  0  0  0  0  0  0  0
    1.5812    2.8000   -0.2604 N   0  0  0  0  0  0  0  0  0  0  0  0
    0.7807   -2.8427   -0.2413 C   0  0  0  0  0  0  0  0  0  0  0  0
    3.8553    0.8097   -1.7981 H   0  0  0  0  0  0  0  0  0  0  0  0
    3.7404    1.1336    2.5088 H   0  0  0  0  0  0  0  0  0  0  0  0
    3.6508   -3.4985    1.4640 H   0  0  0  0  0  0  0  0  0  0  0  0
    3.3959   -3.6201   -0.2630 H   0  0  0  0  0  0  0  0  0  0  0  0
    0.6363   -4.7160    2.0476 H   0  0  0  0  0  0  0  0  0  0  0  0
    2.2321   -5.2543    1.5564 H   0  0  0  0  0  0  0  0  0  0  0  0
    0.4847   -6.5258    0.3543 H   0  0  0  0  0  0  0  0  0  0  0  0
    1.3692   -5.5445   -0.8133 H   0  0  0  0  0  0  0  0  0  0  0  0
   -1.0797   -3.3232    0.7757 H   0  0  0  0  0  0  0  0  0  0  0  0
   -2.5004   -3.5008   -1.2671 H   0  0  0  0  0  0  0  0  0  0  0  0
   -1.1331   -3.1865   -2.2834 H   0  0  0  0  0  0  0  0  0  0  0  0
   -1.0596   -0.9504   -1.5652 H   0  0  0  0  0  0  0  0  0  0  0  0
   -1.6219   -0.9279    0.7010 H   0  0  0  0  0  0  0  0  0  0  0  0
   -3.1082   -1.7934    0.3693 H   0  0  0  0  0  0  0  0  0  0  0  0
   -4.7055   -0.9846   -1.1361 H   0  0  0  0  0  0  0  0  0  0  0  0
   -4.1490    0.3248   -2.1516 H   0  0  0  0  0  0  0  0  0  0  0  0
   -6.4622    0.7127   -1.4498 H   0  0  0  0  0  0  0  0  0  0  0  0
   -5.4631    1.9439   -0.7082 H   0  0  0  0  0  0  0  0  0  0  0  0
   -6.8895   -0.2373    0.5148 H   0  0  0  0  0  0  0  0  0  0  0  0
   -5.4693    0.2678    2.5589 H   0  0  0  0  0  0  0  0  0  0  0  0
   -5.0509   -1.0585    1.4860 H   0  0  0  0  0  0  0  0  0  0  0  0
   -3.0753    0.3792    2.0548 H   0  0  0  0  0  0  0  0  0  0  0  0
   -3.8978    1.7690    1.3837 H   0  0  0  0  0  0  0  0  0  0  0  0
   -0.5144    1.0280    0.4173 H   0  0  0  0  0  0  0  0  0  0  0  0
   -2.0993    4.2327   -1.9921 H   0  0  0  0  0  0  0  0  0  0  0  0
   -0.1463    5.6068   -0.9707 H   0  0  0  0  0  0  0  0  0  0  0  0
    4.2534    6.4677   -0.1533 H   0  0  0  0  0  0  0  0  0  0  0  0
    6.2477    5.1220    0.4299 H   0  0  0  0  0  0  0  0  0  0  0  0
    6.0512    2.6665    0.6632 H   0  0  0  0  0  0  0  0  0  0  0  0
    0.6863   -1.7537   -0.1780 H   0  0  0  0  0  0  0  0  0  0  0  0
    1.2521   -3.0901   -1.2018 H   0  0  0  0  0  0  0  0  0  0  0  0
  1  2  1  0
  2  3  1  0
  3  4  2  0
  4  5  1  0
  5  6  2  0
  6  7  1  0
  6  8  1  0
  8  9  1  0
  9 10  1  0
 10 11  1  0
 11 12  1  0
 12 13  1  0
 13 14  1  0
 14 15  1  0
 15 16  1  0
 16 17  1  0
 17 18  1  0
 18 19  1  0
 19 20  1  0
 20 21  1  0
 21 22  1  0
 22 23  1  0
 18 24  1  0
 24 25  1  0
 25 26  2  0
 26 27  1  0
 27 28  2  0
 26 29  1  0
 29 30  2  0
 30 31  1  0
 31 32  2  0
 32 33  1  0
 33 34  2  0
 34 35  1  0
 35 36  2  0
 36 37  1  0
 37 38  2  0
 14 39  1  0
  8  2  2  0
 39 10  1  0
 36  4  1  0
 23 18  1  0
 28 24  1  0
 38 29  1  0
 37 32  1  0
  3 40  1  0
  5 41  1  0
  9 42  1  0
  9 43  1  0
 11 44  1  0
 11 45  1  0
 12 46  1  0
 12 47  1  0
 14 48  1  0
 15 49  1  0
 15 50  1  0
 16 51  1  0
 17 52  1  0
 17 53  1  0
 19 54  1  0
 19 55  1  0
 20 56  1  0
 20 57  1  0
 21 58  1  0
 22 59  1  0
 22 60  1  0
 23 61  1  0
 23 62  1  0
 25 63  1  0
 27 64  1  0
 30 65  1  0
 33 66  1  0
 34 67  1  0
 35 68  1  0
 39 69  1  0
 39 70  1  0
M  END
>  <candidate_id>  (97) 
CAND_1675c88065

>  <source_generator>  (97) 
v5_3_model_guided_macrocycle

>  <parent_mol_id>  (97) 
JAK2_2dc2722230

>  <canonical_smiles>  (97) 
Fc1cc2cc(F)c1CN1CCOC(CNCC3(CCNCC3)n3cc(cn3)-c3cnc4cccc-2c4n3)C1

>  <inchikey>  (97) 
SOTCITIOJRKMGI-UHFFFAOYSA-N

>  <valid_rdkit>  (97) 
True

>  <unique_flag>  (97) 
True

>  <novel_flag>  (97) 
True

>  <mw>  (97) 
531.611

>  <logp>  (97) 
3.3212

>  <tpsa>  (97) 
80.13

>  <hbd>  (97) 
2

>  <hba>  (97) 
7

>  <rotatable_bonds>  (97) 
0

>  <qed>  (97) 
0.3605

>  <sa_score>  (97) 
4.909

>  <murcko_scaffold>  (97) 
c1cc2c3nc(cnc3c1)-c1cnn(c1)C1(CCNCC1)CNCC1CN(CCO1)Cc1ccc-2cc1

>  <max_ring_size>  (97) 
19

>  <has_macrocycle_12_20>  (97) 
True

>  <has_constrained_ring_8_11>  (97) 
False

>  <passes_basic_filters>  (97) 
True

>  <generation_notes>  (97) 
v5_3_model_guided_anchor_pair=16-32;anchor_scores=0.691,0.079;linker_length=3;target_ring=18;linker_prob=0.496;chemotype=aza

$$$$
CAND_13947fed1a
     RDKit          3D

 71 77  0  0  0  0  0  0  0  0999 V2000
    3.4629   -1.3856   -2.2309 F   0  0  0  0  0  0  0  0  0  0  0  0
    3.6724   -0.6912   -1.1028 C   0  0  0  0  0  0  0  0  0  0  0  0
    3.6373    0.6996   -1.1646 C   0  0  0  0  0  0  0  0  0  0  0  0
    3.8115    1.4601   -0.0022 C   0  0  0  0  0  0  0  0  0  0  0  0
    4.0620    0.7916    1.2046 C   0  0  0  0  0  0  0  0  0  0  0  0
    4.0911   -0.6013    1.2467 C   0  0  0  0  0  0  0  0  0  0  0  0
    4.3145   -1.2018    2.4244 F   0  0  0  0  0  0  0  0  0  0  0  0
    3.8755   -1.3665    0.1019 C   0  0  0  0  0  0  0  0  0  0  0  0
    3.7595   -2.8667    0.1759 C   0  0  0  0  0  0  0  0  0  0  0  0
    2.4768   -3.3144    0.7479 N   0  0  0  0  0  0  0  0  0  0  0  0
    2.4006   -4.7829    0.8697 C   0  0  0  0  0  0  0  0  0  0  0  0
    1.5609   -5.4440   -0.2346 C   0  0  0  0  0  0  0  0  0  0  0  0
    0.2066   -4.9737   -0.2849 O   0  0  0  0  0  0  0  0  0  0  0  0
    0.0419   -3.6298    0.2124 C   0  0  0  0  0  0  0  0  0  0  0  0
   -1.1587   -3.0210   -0.5266 C   0  0  0  0  0  0  0  0  0  0  0  0
   -1.7048   -1.7459    0.1324 C   0  0  0  0  0  0  0  0  0  0  0  0
   -2.6945   -1.0391   -0.8070 C   0  0  0  0  0  0  0  0  0  0  0  0
   -3.5133    0.1619   -0.2198 C   0  0  0  0  0  0  0  0  0  0  0  0
   -4.3764    0.7349   -1.3894 C   0  0  0  0  0  0  0  0  0  0  0  0
   -5.7749    1.1289   -0.9279 C   0  0  0  0  0  0  0  0  0  0  0  0
   -6.5240   -0.0338   -0.4514 N   0  0  0  0  0  0  0  0  0  0  0  0
   -5.7394   -0.9556    0.3687 C   0  0  0  0  0  0  0  0  0  0  0  0
   -4.4540   -0.3456    0.9207 C   0  0  0  0  0  0  0  0  0  0  0  0
   -2.6497    1.2663    0.2681 N   0  0  0  0  0  0  0  0  0  0  0  0
   -1.3859    1.6149   -0.1448 C   0  0  0  0  0  0  0  0  0  0  0  0
   -1.0750    2.8111    0.4716 C   0  0  0  0  0  0  0  0  0  0  0  0
   -2.2241    3.1148    1.2249 C   0  0  0  0  0  0  0  0  0  0  0  0
   -3.1859    2.2047    1.0849 N   0  0  0  0  0  0  0  0  0  0  0  0
    0.1521    3.5592    0.3001 C   0  0  0  0  0  0  0  0  0  0  0  0
    0.1531    4.9438    0.2992 C   0  0  0  0  0  0  0  0  0  0  0  0
    1.2823    5.6762    0.1672 N   0  0  0  0  0  0  0  0  0  0  0  0
    2.4313    4.9877    0.0505 C   0  0  0  0  0  0  0  0  0  0  0  0
    3.6130    5.7048   -0.0701 C   0  0  0  0  0  0  0  0  0  0  0  0
    4.8442    5.0661   -0.1779 C   0  0  0  0  0  0  0  0  0  0  0  0
    4.8935    3.6796   -0.1593 C   0  0  0  0  0  0  0  0  0  0  0  0
    3.7120    2.9249   -0.0410 C   0  0  0  0  0  0  0  0  0  0  0  0
    2.4605    3.5676    0.0557 C   0  0  0  0  0  0  0  0  0  0  0  0
    1.3032    2.8608    0.1649 N   0  0  0  0  0  0  0  0  0  0  0  0
    1.3193   -2.7937   -0.0111 C   0  0  0  0  0  0  0  0  0  0  0  0
    3.4403    1.1791   -2.1197 H   0  0  0  0  0  0  0  0  0  0  0  0
    4.2036    1.3450    2.1293 H   0  0  0  0  0  0  0  0  0  0  0  0
    3.9161   -3.3080   -0.8173 H   0  0  0  0  0  0  0  0  0  0  0  0
    4.5856   -3.2318    0.8006 H   0  0  0  0  0  0  0  0  0  0  0  0
    3.3966   -5.2393    0.9103 H   0  0  0  0  0  0  0  0  0  0  0  0
    1.9255   -4.9972    1.8353 H   0  0  0  0  0  0  0  0  0  0  0  0
    1.5231   -6.5269   -0.0783 H   0  0  0  0  0  0  0  0  0  0  0  0
    2.0150   -5.2751   -1.2180 H   0  0  0  0  0  0  0  0  0  0  0  0
   -0.1888   -3.7022    1.2827 H   0  0  0  0  0  0  0  0  0  0  0  0
   -1.9651   -3.7643   -0.5825 H   0  0  0  0  0  0  0  0  0  0  0  0
   -0.8742   -2.8204   -1.5679 H   0  0  0  0  0  0  0  0  0  0  0  0
   -2.1799   -2.0312    1.0748 H   0  0  0  0  0  0  0  0  0  0  0  0
   -0.8907   -1.0636    0.3852 H   0  0  0  0  0  0  0  0  0  0  0  0
   -3.4013   -1.7932   -1.1785 H   0  0  0  0  0  0  0  0  0  0  0  0
   -2.1408   -0.7007   -1.6938 H   0  0  0  0  0  0  0  0  0  0  0  0
   -3.8905    1.6017   -1.8557 H   0  0  0  0  0  0  0  0  0  0  0  0
   -4.4830   -0.0081   -2.1920 H   0  0  0  0  0  0  0  0  0  0  0  0
   -6.3234    1.5717   -1.7665 H   0  0  0  0  0  0  0  0  0  0  0  0
   -5.7254    1.8958   -0.1464 H   0  0  0  0  0  0  0  0  0  0  0  0
   -7.3358    0.2928    0.0741 H   0  0  0  0  0  0  0  0  0  0  0  0
   -6.3612   -1.3072    1.2004 H   0  0  0  0  0  0  0  0  0  0  0  0
   -5.5076   -1.8430   -0.2302 H   0  0  0  0  0  0  0  0  0  0  0  0
   -3.9513   -1.0715    1.5657 H   0  0  0  0  0  0  0  0  0  0  0  0
   -4.7494    0.4642    1.5996 H   0  0  0  0  0  0  0  0  0  0  0  0
   -0.8184    1.0162   -0.8429 H   0  0  0  0  0  0  0  0  0  0  0  0
   -2.4105    3.9677    1.8651 H   0  0  0  0  0  0  0  0  0  0  0  0
   -0.7594    5.5220    0.3958 H   0  0  0  0  0  0  0  0  0  0  0  0
    3.5708    6.7920   -0.0756 H   0  0  0  0  0  0  0  0  0  0  0  0
    5.7571    5.6491   -0.2691 H   0  0  0  0  0  0  0  0  0  0  0  0
    5.8575    3.1789   -0.2348 H   0  0  0  0  0  0  0  0  0  0  0  0
    1.1470   -1.7567    0.2911 H   0  0  0  0  0  0  0  0  0  0  0  0
    1.5411   -2.8028   -1.0870 H   0  0  0  0  0  0  0  0  0  0  0  0
  1  2  1  0
  2  3  1  0
  3  4  2  0
  4  5  1  0
  5  6  2  0
  6  7  1  0
  6  8  1  0
  8  9  1  0
  9 10  1  0
 10 11  1  0
 11 12  1  0
 12 13  1  0
 13 14  1  0
 14 15  1  0
 15 16  1  0
 16 17  1  0
 17 18  1  0
 18 19  1  0
 19 20  1  0
 20 21  1  0
 21 22  1  0
 22 23  1  0
 18 24  1  0
 24 25  1  0
 25 26  2  0
 26 27  1  0
 27 28  2  0
 26 29  1  0
 29 30  2  0
 30 31  1  0
 31 32  2  0
 32 33  1  0
 33 34  2  0
 34 35  1  0
 35 36  2  0
 36 37  1  0
 37 38  2  0
 14 39  1  0
  8  2  2  0
 39 10  1  0
 36  4  1  0
 23 18  1  0
 28 24  1  0
 38 29  1  0
 37 32  1  0
  3 40  1  0
  5 41  1  0
  9 42  1  0
  9 43  1  0
 11 44  1  0
 11 45  1  0
 12 46  1  0
 12 47  1  0
 14 48  1  0
 15 49  1  0
 15 50  1  0
 16 51  1  0
 16 52  1  0
 17 53  1  0
 17 54  1  0
 19 55  1  0
 19 56  1  0
 20 57  1  0
 20 58  1  0
 21 59  1  0
 22 60  1  0
 22 61  1  0
 23 62  1  0
 23 63  1  0
 25 64  1  0
 27 65  1  0
 30 66  1  0
 33 67  1  0
 34 68  1  0
 35 69  1  0
 39 70  1  0
 39 71  1  0
M  END
>  <candidate_id>  (98) 
CAND_13947fed1a

>  <source_generator>  (98) 
v5_3_model_guided_macrocycle

>  <parent_mol_id>  (98) 
JAK2_2dc2722230

>  <canonical_smiles>  (98) 
Fc1cc2cc(F)c1CN1CCOC(CCCC3(CCNCC3)n3cc(cn3)-c3cnc4cccc-2c4n3)C1

>  <inchikey>  (98) 
XIUADRFISTYXLR-UHFFFAOYSA-N

>  <valid_rdkit>  (98) 
True

>  <unique_flag>  (98) 
True

>  <novel_flag>  (98) 
True

>  <mw>  (98) 
530.623

>  <logp>  (98) 
4.9019

>  <tpsa>  (98) 
68.1

>  <hbd>  (98) 
1

>  <hba>  (98) 
6

>  <rotatable_bonds>  (98) 
0

>  <qed>  (98) 
0.3489

>  <sa_score>  (98) 
4.903

>  <murcko_scaffold>  (98) 
c1cc2c3nc(cnc3c1)-c1cnn(c1)C1(CCCC3CN(CCO3)Cc3ccc-2cc3)CCNCC1

>  <max_ring_size>  (98) 
19

>  <has_macrocycle_12_20>  (98) 
True

>  <has_constrained_ring_8_11>  (98) 
False

>  <passes_basic_filters>  (98) 
True

>  <generation_notes>  (98) 
v5_3_model_guided_anchor_pair=16-32;anchor_scores=0.691,0.079;linker_length=3;target_ring=18;linker_prob=0.496;chemotype=oxa_aza

$$$$
CAND_f01d409d4a
     RDKit          3D

 69 75  0  0  0  0  0  0  0  0999 V2000
   -3.5468    0.2437    2.5529 F   0  0  0  0  0  0  0  0  0  0  0  0
   -3.2743   -0.2879    1.3516 C   0  0  0  0  0  0  0  0  0  0  0  0
   -3.0066   -1.6555    1.2774 C   0  0  0  0  0  0  0  0  0  0  0  0
   -2.7551   -2.2656    0.0406 C   0  0  0  0  0  0  0  0  0  0  0  0
   -2.7715   -1.4649   -1.1085 C   0  0  0  0  0  0  0  0  0  0  0  0
   -3.0454   -0.0996   -1.0144 C   0  0  0  0  0  0  0  0  0  0  0  0
   -3.0776    0.6219   -2.1449 F   0  0  0  0  0  0  0  0  0  0  0  0
   -3.3046    0.5142    0.2108 C   0  0  0  0  0  0  0  0  0  0  0  0
   -3.6226    1.9825    0.3066 C   0  0  0  0  0  0  0  0  0  0  0  0
   -2.4918    2.8031    0.7934 N   0  0  0  0  0  0  0  0  0  0  0  0
   -2.9948    4.0678    1.3602 C   0  0  0  0  0  0  0  0  0  0  0  0
   -3.6297    5.0103    0.3188 C   0  0  0  0  0  0  0  0  0  0  0  0
   -2.9927    4.9628   -0.9654 O   0  0  0  0  0  0  0  0  0  0  0  0
   -1.6312    4.5449   -0.8604 C   0  0  0  0  0  0  0  0  0  0  0  0
   -1.5189    3.0959   -0.3035 C   0  0  0  0  0  0  0  0  0  0  0  0
   -0.0512    2.8753    0.1419 C   0  0  0  0  0  0  0  0  0  0  0  0
    0.3224    1.1609    0.6521 S   0  0  0  0  0  0  0  0  0  0  0  0
    2.1422    1.2592    0.8270 C   0  0  0  0  0  0  0  0  0  0  0  0
    2.8691    1.1737   -0.5366 C   0  0  0  0  0  0  0  0  0  0  0  0
    3.5384    2.5137   -0.8996 C   0  0  0  0  0  0  0  0  0  0  0  0
    4.6848    2.8489   -0.0583 N   0  0  0  0  0  0  0  0  0  0  0  0
    5.7104    1.8120   -0.1130 C   0  0  0  0  0  0  0  0  0  0  0  0
    5.1646    0.4473    0.2859 C   0  0  0  0  0  0  0  0  0  0  0  0
    3.9539    0.0571   -0.5875 C   0  0  0  0  0  0  0  0  0  0  0  0
    3.4637   -1.2948   -0.3095 N   0  0  0  0  0  0  0  0  0  0  0  0
    2.2259   -1.8102   -0.5740 C   0  0  0  0  0  0  0  0  0  0  0  0
    2.2381   -3.1228   -0.1486 C   0  0  0  0  0  0  0  0  0  0  0  0
    3.5597   -3.3219    0.2958 C   0  0  0  0  0  0  0  0  0  0  0  0
    4.3134   -2.2274    0.1748 N   0  0  0  0  0  0  0  0  0  0  0  0
    1.0957   -4.0094   -0.1849 C   0  0  0  0  0  0  0  0  0  0  0  0
    1.2320   -5.3848   -0.2272 C   0  0  0  0  0  0  0  0  0  0  0  0
    0.1705   -6.2242   -0.2338 N   0  0  0  0  0  0  0  0  0  0  0  0
   -1.0467   -5.6514   -0.1802 C   0  0  0  0  0  0  0  0  0  0  0  0
   -2.1615   -6.4770   -0.1676 C   0  0  0  0  0  0  0  0  0  0  0  0
   -3.4499   -5.9568   -0.0970 C   0  0  0  0  0  0  0  0  0  0  0  0
   -3.6252   -4.5811   -0.0337 C   0  0  0  0  0  0  0  0  0  0  0  0
   -2.5156   -3.7151   -0.0479 C   0  0  0  0  0  0  0  0  0  0  0  0
   -1.2126   -4.2418   -0.1300 C   0  0  0  0  0  0  0  0  0  0  0  0
   -0.1275   -3.4315   -0.1484 N   0  0  0  0  0  0  0  0  0  0  0  0
   -2.9974   -2.2352    2.1964 H   0  0  0  0  0  0  0  0  0  0  0  0
   -2.5755   -1.8942   -2.0872 H   0  0  0  0  0  0  0  0  0  0  0  0
   -4.4686    2.0653    1.0038 H   0  0  0  0  0  0  0  0  0  0  0  0
   -4.0101    2.3544   -0.6514 H   0  0  0  0  0  0  0  0  0  0  0  0
   -2.1481    4.5826    1.8340 H   0  0  0  0  0  0  0  0  0  0  0  0
   -3.7012    3.8824    2.1786 H   0  0  0  0  0  0  0  0  0  0  0  0
   -3.5949    6.0438    0.6802 H   0  0  0  0  0  0  0  0  0  0  0  0
   -4.6822    4.7521    0.1615 H   0  0  0  0  0  0  0  0  0  0  0  0
   -1.1944    4.5865   -1.8644 H   0  0  0  0  0  0  0  0  0  0  0  0
   -1.0864    5.2692   -0.2414 H   0  0  0  0  0  0  0  0  0  0  0  0
   -1.7033    2.4267   -1.1523 H   0  0  0  0  0  0  0  0  0  0  0  0
    0.6004    3.1251   -0.7000 H   0  0  0  0  0  0  0  0  0  0  0  0
    0.1984    3.5414    0.9753 H   0  0  0  0  0  0  0  0  0  0  0  0
    2.3791    2.1749    1.3772 H   0  0  0  0  0  0  0  0  0  0  0  0
    2.4229    0.4268    1.4792 H   0  0  0  0  0  0  0  0  0  0  0  0
    2.1434    0.9633   -1.3336 H   0  0  0  0  0  0  0  0  0  0  0  0
    3.8617    2.4879   -1.9484 H   0  0  0  0  0  0  0  0  0  0  0  0
    2.8151    3.3323   -0.8338 H   0  0  0  0  0  0  0  0  0  0  0  0
    4.3965    2.9935    0.9092 H   0  0  0  0  0  0  0  0  0  0  0  0
    6.5309    2.0887    0.5583 H   0  0  0  0  0  0  0  0  0  0  0  0
    6.1375    1.7688   -1.1224 H   0  0  0  0  0  0  0  0  0  0  0  0
    5.9734   -0.2856    0.1770 H   0  0  0  0  0  0  0  0  0  0  0  0
    4.8855    0.4488    1.3474 H   0  0  0  0  0  0  0  0  0  0  0  0
    4.3081   -0.0119   -1.6272 H   0  0  0  0  0  0  0  0  0  0  0  0
    1.4290   -1.2225   -1.0082 H   0  0  0  0  0  0  0  0  0  0  0  0
    4.0106   -4.2144    0.7102 H   0  0  0  0  0  0  0  0  0  0  0  0
    2.2007   -5.8699   -0.2646 H   0  0  0  0  0  0  0  0  0  0  0  0
   -2.0192   -7.5546   -0.2096 H   0  0  0  0  0  0  0  0  0  0  0  0
   -4.3091   -6.6226   -0.0863 H   0  0  0  0  0  0  0  0  0  0  0  0
   -4.6338   -4.1751    0.0280 H   0  0  0  0  0  0  0  0  0  0  0  0
  1  2  1  0
  2  3  1  0
  3  4  2  0
  4  5  1  0
  5  6  2  0
  6  7  1  0
  6  8  1  0
  8  9  1  0
  9 10  1  0
 10 11  1  0
 11 12  1  0
 12 13  1  0
 13 14  1  0
 14 15  1  0
 15 16  1  0
 16 17  1  0
 17 18  1  0
 18 19  1  0
 19 20  1  0
 20 21  1  0
 21 22  1  0
 22 23  1  0
 23 24  1  0
 24 25  1  0
 25 26  1  0
 26 27  2  0
 27 28  1  0
 28 29  2  0
 27 30  1  0
 30 31  2  0
 31 32  1  0
 32 33  2  0
 33 34  1  0
 34 35  2  0
 35 36  1  0
 36 37  2  0
 37 38  1  0
 38 39  2  0
  8  2  2  0
 15 10  1  0
 24 19  1  0
 29 25  1  0
 39 30  1  0
 37  4  1  0
 38 33  1  0
  3 40  1  0
  5 41  1  0
  9 42  1  0
  9 43  1  0
 11 44  1  0
 11 45  1  0
 12 46  1  0
 12 47  1  0
 14 48  1  0
 14 49  1  0
 15 50  1  0
 16 51  1  0
 16 52  1  0
 18 53  1  0
 18 54  1  0
 19 55  1  0
 20 56  1  0
 20 57  1  0
 21 58  1  0
 22 59  1  0
 22 60  1  0
 23 61  1  0
 23 62  1  0
 24 63  1  0
 26 64  1  0
 28 65  1  0
 31 66  1  0
 34 67  1  0
 35 68  1  0
 36 69  1  0
M  END
>  <candidate_id>  (99) 
CAND_f01d409d4a

>  <source_generator>  (99) 
v5_3_model_guided_macrocycle

>  <parent_mol_id>  (99) 
JAK2_2dc2722230

>  <canonical_smiles>  (99) 
Fc1cc2cc(F)c1CN1CCOCC1CSCC1CNCCC1n1cc(cn1)-c1cnc3cccc-2c3n1

>  <inchikey>  (99) 
ITDKIPHIFDPKIE-UHFFFAOYSA-N

>  <valid_rdkit>  (99) 
True

>  <unique_flag>  (99) 
True

>  <novel_flag>  (99) 
True

>  <mw>  (99) 
548.663

>  <logp>  (99) 
4.5367

>  <tpsa>  (99) 
68.1

>  <hbd>  (99) 
1

>  <hba>  (99) 
7

>  <rotatable_bonds>  (99) 
0

>  <qed>  (99) 
0.3462

>  <sa_score>  (99) 
5.254

>  <murcko_scaffold>  (99) 
c1cc2c3nc(cnc3c1)-c1cnn(c1)C1CCNCC1CSCC1COCCN1Cc1ccc-2cc1

>  <max_ring_size>  (99) 
19

>  <has_macrocycle_12_20>  (99) 
True

>  <has_constrained_ring_8_11>  (99) 
False

>  <passes_basic_filters>  (99) 
True

>  <generation_notes>  (99) 
v5_3_model_guided_anchor_pair=17-31;anchor_scores=0.079,0.079;linker_length=3;target_ring=18;linker_prob=0.496;chemotype=thioether

$$$$
CAND_d3037c6bbb
     RDKit          3D

 70 76  0  0  0  0  0  0  0  0999 V2000
   -2.2748    0.8825    2.6724 F   0  0  0  0  0  0  0  0  0  0  0  0
   -2.6010    0.1571    1.5929 C   0  0  0  0  0  0  0  0  0  0  0  0
   -2.4756   -1.2287    1.6622 C   0  0  0  0  0  0  0  0  0  0  0  0
   -2.8155   -2.0353    0.5652 C   0  0  0  0  0  0  0  0  0  0  0  0
   -3.2926   -1.4058   -0.5914 C   0  0  0  0  0  0  0  0  0  0  0  0
   -3.4074   -0.0147   -0.6437 C   0  0  0  0  0  0  0  0  0  0  0  0
   -3.9000    0.5381   -1.7620 F   0  0  0  0  0  0  0  0  0  0  0  0
   -3.0538    0.7925    0.4392 C   0  0  0  0  0  0  0  0  0  0  0  0
   -3.2266    2.2869    0.3959 C   0  0  0  0  0  0  0  0  0  0  0  0
   -2.3812    2.9576   -0.6160 N   0  0  0  0  0  0  0  0  0  0  0  0
   -3.0703    4.1769   -1.1164 C   0  0  0  0  0  0  0  0  0  0  0  0
   -2.7234    5.4876   -0.3779 C   0  0  0  0  0  0  0  0  0  0  0  0
   -2.3458    5.2454    0.9773 O   0  0  0  0  0  0  0  0  0  0  0  0
   -1.1649    4.4233    1.0598 C   0  0  0  0  0  0  0  0  0  0  0  0
   -1.0501    3.3923   -0.0990 C   0  0  0  0  0  0  0  0  0  0  0  0
   -0.0396    2.2596    0.2321 C   0  0  0  0  0  0  0  0  0  0  0  0
    1.3117    2.8039    0.4571 N   0  0  0  0  0  0  0  0  0  0  0  0
    2.3296    1.7708    0.6700 C   0  0  0  0  0  0  0  0  0  0  0  0
    2.8378    1.0583   -0.6051 C   0  0  0  0  0  0  0  0  0  0  0  0
    3.4804    2.0235   -1.6126 C   0  0  0  0  0  0  0  0  0  0  0  0
    3.8451    1.3658   -2.8699 N   0  0  0  0  0  0  0  0  0  0  0  0
    4.1959   -0.0453   -2.7423 C   0  0  0  0  0  0  0  0  0  0  0  0
    4.8345   -0.3663   -1.4015 C   0  0  0  0  0  0  0  0  0  0  0  0
    3.8891   -0.0284   -0.2317 C   0  0  0  0  0  0  0  0  0  0  0  0
    3.3268   -1.2554    0.3334 N   0  0  0  0  0  0  0  0  0  0  0  0
    2.1144   -1.8281    0.0939 C   0  0  0  0  0  0  0  0  0  0  0  0
    2.0749   -2.9960    0.8289 C   0  0  0  0  0  0  0  0  0  0  0  0
    3.3292   -3.0455    1.4649 C   0  0  0  0  0  0  0  0  0  0  0  0
    4.0958   -1.9932    1.1658 N   0  0  0  0  0  0  0  0  0  0  0  0
    0.9346   -3.8804    0.8655 C   0  0  0  0  0  0  0  0  0  0  0  0
    1.0435   -5.2486    1.0186 C   0  0  0  0  0  0  0  0  0  0  0  0
   -0.0369   -6.0671    1.0235 N   0  0  0  0  0  0  0  0  0  0  0  0
   -1.2420   -5.4772    0.8812 C   0  0  0  0  0  0  0  0  0  0  0  0
   -2.3831   -6.2666    0.8671 C   0  0  0  0  0  0  0  0  0  0  0  0
   -3.6522   -5.7079    0.7299 C   0  0  0  0  0  0  0  0  0  0  0  0
   -3.7861   -4.3289    0.6171 C   0  0  0  0  0  0  0  0  0  0  0  0
   -2.6520   -3.4994    0.6346 C   0  0  0  0  0  0  0  0  0  0  0  0
   -1.3716   -4.0718    0.7476 C   0  0  0  0  0  0  0  0  0  0  0  0
   -0.2718   -3.2885    0.7303 N   0  0  0  0  0  0  0  0  0  0  0  0
   -2.0961   -1.6711    2.5801 H   0  0  0  0  0  0  0  0  0  0  0  0
   -3.5683   -1.9843   -1.4690 H   0  0  0  0  0  0  0  0  0  0  0  0
   -3.1083    2.7236    1.3936 H   0  0  0  0  0  0  0  0  0  0  0  0
   -4.2912    2.4300    0.1627 H   0  0  0  0  0  0  0  0  0  0  0  0
   -2.8026    4.3087   -2.1730 H   0  0  0  0  0  0  0  0  0  0  0  0
   -4.1591    4.0432   -1.1323 H   0  0  0  0  0  0  0  0  0  0  0  0
   -1.9057    6.0168   -0.8824 H   0  0  0  0  0  0  0  0  0  0  0  0
   -3.5921    6.1537   -0.3742 H   0  0  0  0  0  0  0  0  0  0  0  0
   -0.2969    5.0924    1.0587 H   0  0  0  0  0  0  0  0  0  0  0  0
   -1.1960    3.9238    2.0340 H   0  0  0  0  0  0  0  0  0  0  0  0
   -0.5904    3.9254   -0.9467 H   0  0  0  0  0  0  0  0  0  0  0  0
   -0.0258    1.5497   -0.6023 H   0  0  0  0  0  0  0  0  0  0  0  0
   -0.3542    1.7270    1.1331 H   0  0  0  0  0  0  0  0  0  0  0  0
    1.5695    3.4129   -0.3167 H   0  0  0  0  0  0  0  0  0  0  0  0
    1.9596    1.0383    1.3977 H   0  0  0  0  0  0  0  0  0  0  0  0
    3.1819    2.2643    1.1537 H   0  0  0  0  0  0  0  0  0  0  0  0
    1.9775    0.5979   -1.1039 H   0  0  0  0  0  0  0  0  0  0  0  0
    4.3741    2.4805   -1.1684 H   0  0  0  0  0  0  0  0  0  0  0  0
    2.8020    2.8425   -1.8675 H   0  0  0  0  0  0  0  0  0  0  0  0
    4.6020    1.8829   -3.3186 H   0  0  0  0  0  0  0  0  0  0  0  0
    4.8781   -0.3179   -3.5553 H   0  0  0  0  0  0  0  0  0  0  0  0
    3.2938   -0.6529   -2.8815 H   0  0  0  0  0  0  0  0  0  0  0  0
    5.1474   -1.4172   -1.3853 H   0  0  0  0  0  0  0  0  0  0  0  0
    5.7542    0.2257   -1.2980 H   0  0  0  0  0  0  0  0  0  0  0  0
    4.5194    0.3745    0.5754 H   0  0  0  0  0  0  0  0  0  0  0  0
    1.3728   -1.3871   -0.5577 H   0  0  0  0  0  0  0  0  0  0  0  0
    3.7189   -3.7934    2.1435 H   0  0  0  0  0  0  0  0  0  0  0  0
    2.0014   -5.7449    1.1239 H   0  0  0  0  0  0  0  0  0  0  0  0
   -2.2784   -7.3449    0.9656 H   0  0  0  0  0  0  0  0  0  0  0  0
   -4.5316   -6.3474    0.7221 H   0  0  0  0  0  0  0  0  0  0  0  0
   -4.7812   -3.8956    0.5315 H   0  0  0  0  0  0  0  0  0  0  0  0
  1  2  1  0
  2  3  1  0
  3  4  2  0
  4  5  1  0
  5  6  2  0
  6  7  1  0
  6  8  1  0
  8  9  1  0
  9 10  1  0
 10 11  1  0
 11 12  1  0
 12 13  1  0
 13 14  1  0
 14 15  1  0
 15 16  1  0
 16 17  1  0
 17 18  1  0
 18 19  1  0
 19 20  1  0
 20 21  1  0
 21 22  1  0
 22 23  1  0
 23 24  1  0
 24 25  1  0
 25 26  1  0
 26 27  2  0
 27 28  1  0
 28 29  2  0
 27 30  1  0
 30 31  2  0
 31 32  1  0
 32 33  2  0
 33 34  1  0
 34 35  2  0
 35 36  1  0
 36 37  2  0
 37 38  1  0
 38 39  2  0
  8  2  2  0
 15 10  1  0
 24 19  1  0
 29 25  1  0
 39 30  1  0
 37  4  1  0
 38 33  1  0
  3 40  1  0
  5 41  1  0
  9 42  1  0
  9 43  1  0
 11 44  1  0
 11 45  1  0
 12 46  1  0
 12 47  1  0
 14 48  1  0
 14 49  1  0
 15 50  1  0
 16 51  1  0
 16 52  1  0
 17 53  1  0
 18 54  1  0
 18 55  1  0
 19 56  1  0
 20 57  1  0
 20 58  1  0
 21 59  1  0
 22 60  1  0
 22 61  1  0
 23 62  1  0
 23 63  1  0
 24 64  1  0
 26 65  1  0
 28 66  1  0
 31 67  1  0
 34 68  1  0
 35 69  1  0
 36 70  1  0
M  END
>  <candidate_id>  (100) 
CAND_d3037c6bbb

>  <source_generator>  (100) 
v5_3_model_guided_macrocycle

>  <parent_mol_id>  (100) 
JAK2_2dc2722230

>  <canonical_smiles>  (100) 
Fc1cc2cc(F)c1CN1CCOCC1CNCC1CNCCC1n1cc(cn1)-c1cnc3cccc-2c3n1

>  <inchikey>  (100) 
LPYRODOGMAJHRM-UHFFFAOYSA-N

>  <valid_rdkit>  (100) 
True

>  <unique_flag>  (100) 
True

>  <novel_flag>  (100) 
True

>  <mw>  (100) 
531.611

>  <logp>  (100) 
3.3931

>  <tpsa>  (100) 
80.13

>  <hbd>  (100) 
2

>  <hba>  (100) 
7

>  <rotatable_bonds>  (100) 
0

>  <qed>  (100) 
0.3602

>  <sa_score>  (100) 
5.159

>  <murcko_scaffold>  (100) 
c1cc2c3nc(cnc3c1)-c1cnn(c1)C1CCNCC1CNCC1COCCN1Cc1ccc-2cc1

>  <max_ring_size>  (100) 
19

>  <has_macrocycle_12_20>  (100) 
True

>  <has_constrained_ring_8_11>  (100) 
False

>  <passes_basic_filters>  (100) 
True

>  <generation_notes>  (100) 
v5_3_model_guided_anchor_pair=17-31;anchor_scores=0.079,0.079;linker_length=3;target_ring=18;linker_prob=0.496;chemotype=aza

$$$$
CAND_598172bd63
     RDKit          3D

 71 77  0  0  0  0  0  0  0  0999 V2000
   -2.3158    0.2721    1.4193 F   0  0  0  0  0  0  0  0  0  0  0  0
   -2.4411   -0.8094    0.6367 C   0  0  0  0  0  0  0  0  0  0  0  0
   -1.8498   -2.0018    1.0511 C   0  0  0  0  0  0  0  0  0  0  0  0
   -1.9056   -3.1505    0.2456 C   0  0  0  0  0  0  0  0  0  0  0  0
   -2.6378   -3.0761   -0.9481 C   0  0  0  0  0  0  0  0  0  0  0  0
   -3.2328   -1.8778   -1.3422 C   0  0  0  0  0  0  0  0  0  0  0  0
   -3.9074   -1.8542   -2.5012 F   0  0  0  0  0  0  0  0  0  0  0  0
   -3.1199   -0.7180   -0.5753 C   0  0  0  0  0  0  0  0  0  0  0  0
   -3.6611    0.5938   -1.0732 C   0  0  0  0  0  0  0  0  0  0  0  0
   -2.8991    1.1181   -2.2123 N   0  0  0  0  0  0  0  0  0  0  0  0
   -3.6397    2.1659   -2.9362 C   0  0  0  0  0  0  0  0  0  0  0  0
   -2.8835    2.6258   -4.1949 C   0  0  0  0  0  0  0  0  0  0  0  0
   -1.5334    3.0106   -3.9027 O   0  0  0  0  0  0  0  0  0  0  0  0
   -0.8454    1.9175   -3.2765 C   0  0  0  0  0  0  0  0  0  0  0  0
   -1.5012    1.5479   -1.9221 C   0  0  0  0  0  0  0  0  0  0  0  0
   -1.3953    2.7054   -0.8933 C   0  0  0  0  0  0  0  0  0  0  0  0
    0.0253    3.1917   -0.5620 C   0  0  0  0  0  0  0  0  0  0  0  0
    0.8644    2.1795    0.2292 C   0  0  0  0  0  0  0  0  0  0  0  0
    2.3375    2.6189    0.4599 C   0  0  0  0  0  0  0  0  0  0  0  0
    2.4741    4.0596    0.9902 C   0  0  0  0  0  0  0  0  0  0  0  0
    1.9206    4.1861    2.3394 N   0  0  0  0  0  0  0  0  0  0  0  0
    2.6467    3.3532    3.2971 C   0  0  0  0  0  0  0  0  0  0  0  0
    2.6242    1.8817    2.8949 C   0  0  0  0  0  0  0  0  0  0  0  0
    3.1165    1.7091    1.4488 C   0  0  0  0  0  0  0  0  0  0  0  0
    3.2210    0.3109    1.0539 N   0  0  0  0  0  0  0  0  0  0  0  0
    2.2907   -0.6757    1.2070 C   0  0  0  0  0  0  0  0  0  0  0  0
    2.8969   -1.8569    0.8285 C   0  0  0  0  0  0  0  0  0  0  0  0
    4.1957   -1.4669    0.4471 C   0  0  0  0  0  0  0  0  0  0  0  0
    4.3987   -0.1532    0.5811 N   0  0  0  0  0  0  0  0  0  0  0  0
    2.2485   -3.1475    0.8741 C   0  0  0  0  0  0  0  0  0  0  0  0
    2.9310   -4.3261    1.1024 C   0  0  0  0  0  0  0  0  0  0  0  0
    2.3037   -5.5245    1.1917 N   0  0  0  0  0  0  0  0  0  0  0  0
    0.9637   -5.5186    1.0361 C   0  0  0  0  0  0  0  0  0  0  0  0
    0.2720   -6.7181    1.1223 C   0  0  0  0  0  0  0  0  0  0  0  0
   -1.1099   -6.7740    0.9575 C   0  0  0  0  0  0  0  0  0  0  0  0
   -1.8165   -5.6074    0.6888 C   0  0  0  0  0  0  0  0  0  0  0  0
   -1.1496   -4.3732    0.5934 C   0  0  0  0  0  0  0  0  0  0  0  0
    0.2474   -4.3218    0.7823 C   0  0  0  0  0  0  0  0  0  0  0  0
    0.9082   -3.1441    0.7107 N   0  0  0  0  0  0  0  0  0  0  0  0
   -1.2963   -2.0072    1.9871 H   0  0  0  0  0  0  0  0  0  0  0  0
   -2.7136   -3.9320   -1.6137 H   0  0  0  0  0  0  0  0  0  0  0  0
   -3.7425    1.3261   -0.2620 H   0  0  0  0  0  0  0  0  0  0  0  0
   -4.6975    0.4003   -1.3834 H   0  0  0  0  0  0  0  0  0  0  0  0
   -4.6190    1.7861   -3.2513 H   0  0  0  0  0  0  0  0  0  0  0  0
   -3.8227    3.0269   -2.2831 H   0  0  0  0  0  0  0  0  0  0  0  0
   -2.8705    1.8336   -4.9536 H   0  0  0  0  0  0  0  0  0  0  0  0
   -3.3879    3.4927   -4.6335 H   0  0  0  0  0  0  0  0  0  0  0  0
   -0.8450    1.0561   -3.9576 H   0  0  0  0  0  0  0  0  0  0  0  0
    0.2013    2.2068   -3.1501 H   0  0  0  0  0  0  0  0  0  0  0  0
   -0.9500    0.6833   -1.5365 H   0  0  0  0  0  0  0  0  0  0  0  0
   -1.9496    3.5779   -1.2587 H   0  0  0  0  0  0  0  0  0  0  0  0
   -1.8722    2.4145    0.0487 H   0  0  0  0  0  0  0  0  0  0  0  0
    0.5543    3.4996   -1.4689 H   0  0  0  0  0  0  0  0  0  0  0  0
   -0.0953    4.0978    0.0439 H   0  0  0  0  0  0  0  0  0  0  0  0
    0.8753    1.2298   -0.3155 H   0  0  0  0  0  0  0  0  0  0  0  0
    0.3632    1.9895    1.1847 H   0  0  0  0  0  0  0  0  0  0  0  0
    2.8400    2.5750   -0.5164 H   0  0  0  0  0  0  0  0  0  0  0  0
    1.9742    4.7697    0.3245 H   0  0  0  0  0  0  0  0  0  0  0  0
    3.5304    4.3596    0.9941 H   0  0  0  0  0  0  0  0  0  0  0  0
    1.9751    5.1618    2.6349 H   0  0  0  0  0  0  0  0  0  0  0  0
    2.1857    3.4628    4.2848 H   0  0  0  0  0  0  0  0  0  0  0  0
    3.6819    3.7041    3.3891 H   0  0  0  0  0  0  0  0  0  0  0  0
    3.2617    1.3093    3.5805 H   0  0  0  0  0  0  0  0  0  0  0  0
    1.6093    1.4844    3.0157 H   0  0  0  0  0  0  0  0  0  0  0  0
    4.1584    2.0677    1.4425 H   0  0  0  0  0  0  0  0  0  0  0  0
    1.2957   -0.4747    1.5803 H   0  0  0  0  0  0  0  0  0  0  0  0
    5.0067   -2.0791    0.0742 H   0  0  0  0  0  0  0  0  0  0  0  0
    4.0051   -4.3550    1.2455 H   0  0  0  0  0  0  0  0  0  0  0  0
    0.8267   -7.6323    1.3219 H   0  0  0  0  0  0  0  0  0  0  0  0
   -1.6297   -7.7263    1.0306 H   0  0  0  0  0  0  0  0  0  0  0  0
   -2.8953   -5.6607    0.5525 H   0  0  0  0  0  0  0  0  0  0  0  0
  1  2  1  0
  2  3  1  0
  3  4  2  0
  4  5  1  0
  5  6  2  0
  6  7  1  0
  6  8  1  0
  8  9  1  0
  9 10  1  0
 10 11  1  0
 11 12  1  0
 12 13  1  0
 13 14  1  0
 14 15  1  0
 15 16  1  0
 16 17  1  0
 17 18  1  0
 18 19  1  0
 19 20  1  0
 20 21  1  0
 21 22  1  0
 22 23  1  0
 23 24  1  0
 24 25  1  0
 25 26  1  0
 26 27  2  0
 27 28  1  0
 28 29  2  0
 27 30  1  0
 30 31  2  0
 31 32  1  0
 32 33  2  0
 33 34  1  0
 34 35  2  0
 35 36  1  0
 36 37  2  0
 37 38  1  0
 38 39  2  0
  8  2  2  0
 15 10  1  0
 24 19  1  0
 29 25  1  0
 39 30  1  0
 37  4  1  0
 38 33  1  0
  3 40  1  0
  5 41  1  0
  9 42  1  0
  9 43  1  0
 11 44  1  0
 11 45  1  0
 12 46  1  0
 12 47  1  0
 14 48  1  0
 14 49  1  0
 15 50  1  0
 16 51  1  0
 16 52  1  0
 17 53  1  0
 17 54  1  0
 18 55  1  0
 18 56  1  0
 19 57  1  0
 20 58  1  0
 20 59  1  0
 21 60  1  0
 22 61  1  0
 22 62  1  0
 23 63  1  0
 23 64  1  0
 24 65  1  0
 26 66  1  0
 28 67  1  0
 31 68  1  0
 34 69  1  0
 35 70  1  0
 36 71  1  0
M  END
>  <candidate_id>  (101) 
CAND_598172bd63

>  <source_generator>  (101) 
v5_3_model_guided_macrocycle

>  <parent_mol_id>  (101) 
JAK2_2dc2722230

>  <canonical_smiles>  (101) 
Fc1cc2cc(F)c1CN1CCOCC1CCCC1CNCCC1n1cc(cn1)-c1cnc3cccc-2c3n1

>  <inchikey>  (101) 
UCSDEFGUMXHZAX-UHFFFAOYSA-N

>  <valid_rdkit>  (101) 
True

>  <unique_flag>  (101) 
True

>  <novel_flag>  (101) 
True

>  <mw>  (101) 
530.623

>  <logp>  (101) 
4.9738

>  <tpsa>  (101) 
68.1

>  <hbd>  (101) 
1

>  <hba>  (101) 
6

>  <rotatable_bonds>  (101) 
0

>  <qed>  (101) 
0.3462

>  <sa_score>  (101) 
5.153

>  <murcko_scaffold>  (101) 
c1cc2c3nc(cnc3c1)-c1cnn(c1)C1CCNCC1CCCC1COCCN1Cc1ccc-2cc1

>  <max_ring_size>  (101) 
19

>  <has_macrocycle_12_20>  (101) 
True

>  <has_constrained_ring_8_11>  (101) 
False

>  <passes_basic_filters>  (101) 
True

>  <generation_notes>  (101) 
v5_3_model_guided_anchor_pair=17-31;anchor_scores=0.079,0.079;linker_length=3;target_ring=18;linker_prob=0.496;chemotype=alkyl

$$$$
CAND_5580e1eed5
     RDKit          3D

 69 75  0  0  0  0  0  0  0  0999 V2000
    3.9095    0.9421    1.9319 F   0  0  0  0  0  0  0  0  0  0  0  0
    3.6871    0.1474    0.8750 C   0  0  0  0  0  0  0  0  0  0  0  0
    3.6543   -1.2306    1.0807 C   0  0  0  0  0  0  0  0  0  0  0  0
    3.3606   -2.0958    0.0187 C   0  0  0  0  0  0  0  0  0  0  0  0
    3.2011   -1.5451   -1.2616 C   0  0  0  0  0  0  0  0  0  0  0  0
    3.2398   -0.1638   -1.4482 C   0  0  0  0  0  0  0  0  0  0  0  0
    3.0522    0.3175   -2.6853 F   0  0  0  0  0  0  0  0  0  0  0  0
    3.4281    0.7083   -0.3768 C   0  0  0  0  0  0  0  0  0  0  0  0
    3.3386    2.1993   -0.5449 C   0  0  0  0  0  0  0  0  0  0  0  0
    2.0421    2.7128   -1.0575 N   0  0  0  0  0  0  0  0  0  0  0  0
    2.2008    4.1648   -1.3544 C   0  0  0  0  0  0  0  0  0  0  0  0
    1.7404    5.1229   -0.2310 C   0  0  0  0  0  0  0  0  0  0  0  0
    1.9054    4.5412    1.0640 O   0  0  0  0  0  0  0  0  0  0  0  0
    1.1256    3.3379    1.2168 C   0  0  0  0  0  0  0  0  0  0  0  0
    0.8844    2.5911   -0.1194 C   0  0  0  0  0  0  0  0  0  0  0  0
    0.3105    1.1743    0.1084 C   0  0  0  0  0  0  0  0  0  0  0  0
   -0.8765    1.1570    0.9132 O   0  0  0  0  0  0  0  0  0  0  0  0
   -2.0419    1.6885    0.2706 C   0  0  0  0  0  0  0  0  0  0  0  0
   -3.2672    1.0149    0.9240 C   0  0  0  0  0  0  0  0  0  0  0  0
   -4.3119    2.0514    1.3602 C   0  0  0  0  0  0  0  0  0  0  0  0
   -4.9828    2.6778    0.2239 N   0  0  0  0  0  0  0  0  0  0  0  0
   -5.7011    1.6897   -0.5783 C   0  0  0  0  0  0  0  0  0  0  0  0
   -4.7489    0.6355   -1.1257 C   0  0  0  0  0  0  0  0  0  0  0  0
   -3.9456   -0.0338    0.0055 C   0  0  0  0  0  0  0  0  0  0  0  0
   -3.0100   -1.0500   -0.4725 N   0  0  0  0  0  0  0  0  0  0  0  0
   -2.4318   -2.0422    0.2772 C   0  0  0  0  0  0  0  0  0  0  0  0
   -1.5025   -2.6429   -0.5451 C   0  0  0  0  0  0  0  0  0  0  0  0
   -1.6233   -1.9659   -1.7736 C   0  0  0  0  0  0  0  0  0  0  0  0
   -2.5871   -1.0439   -1.7531 N   0  0  0  0  0  0  0  0  0  0  0  0
   -0.5085   -3.5953   -0.1316 C   0  0  0  0  0  0  0  0  0  0  0  0
   -0.7935   -4.8992    0.2156 C   0  0  0  0  0  0  0  0  0  0  0  0
    0.1774   -5.7836    0.5573 N   0  0  0  0  0  0  0  0  0  0  0  0
    1.4470   -5.3197    0.5579 C   0  0  0  0  0  0  0  0  0  0  0  0
    2.4885   -6.1695    0.9059 C   0  0  0  0  0  0  0  0  0  0  0  0
    3.8113   -5.7262    0.9429 C   0  0  0  0  0  0  0  0  0  0  0  0
    4.1040   -4.4014    0.6368 C   0  0  0  0  0  0  0  0  0  0  0  0
    3.0758   -3.5186    0.2763 C   0  0  0  0  0  0  0  0  0  0  0  0
    1.7453   -3.9770    0.2203 C   0  0  0  0  0  0  0  0  0  0  0  0
    0.7558   -3.1314   -0.1370 N   0  0  0  0  0  0  0  0  0  0  0  0
    3.7830   -1.6092    2.0912 H   0  0  0  0  0  0  0  0  0  0  0  0
    2.9730   -2.1786   -2.1149 H   0  0  0  0  0  0  0  0  0  0  0  0
    3.6289    2.7081    0.3818 H   0  0  0  0  0  0  0  0  0  0  0  0
    4.1264    2.4500   -1.2697 H   0  0  0  0  0  0  0  0  0  0  0  0
    3.2379    4.4004   -1.6255 H   0  0  0  0  0  0  0  0  0  0  0  0
    1.6193    4.3966   -2.2558 H   0  0  0  0  0  0  0  0  0  0  0  0
    0.6877    5.4031   -0.3597 H   0  0  0  0  0  0  0  0  0  0  0  0
    2.3297    6.0448   -0.2656 H   0  0  0  0  0  0  0  0  0  0  0  0
    0.1700    3.6207    1.6722 H   0  0  0  0  0  0  0  0  0  0  0  0
    1.6585    2.7040    1.9335 H   0  0  0  0  0  0  0  0  0  0  0  0
    0.0646    3.1269   -0.6201 H   0  0  0  0  0  0  0  0  0  0  0  0
    0.1113    0.6723   -0.8455 H   0  0  0  0  0  0  0  0  0  0  0  0
    1.0199    0.5572    0.6583 H   0  0  0  0  0  0  0  0  0  0  0  0
   -2.0017    1.5253   -0.8105 H   0  0  0  0  0  0  0  0  0  0  0  0
   -2.0401    2.7690    0.4484 H   0  0  0  0  0  0  0  0  0  0  0  0
   -2.9326    0.4967    1.8340 H   0  0  0  0  0  0  0  0  0  0  0  0
   -3.8303    2.8306    1.9624 H   0  0  0  0  0  0  0  0  0  0  0  0
   -5.0565    1.5773    2.0128 H   0  0  0  0  0  0  0  0  0  0  0  0
   -5.6439    3.3780    0.5638 H   0  0  0  0  0  0  0  0  0  0  0  0
   -6.4927    1.2190    0.0173 H   0  0  0  0  0  0  0  0  0  0  0  0
   -6.1918    2.2001   -1.4143 H   0  0  0  0  0  0  0  0  0  0  0  0
   -4.0782    1.1079   -1.8549 H   0  0  0  0  0  0  0  0  0  0  0  0
   -5.3225   -0.1211   -1.6759 H   0  0  0  0  0  0  0  0  0  0  0  0
   -4.6666   -0.5953    0.6183 H   0  0  0  0  0  0  0  0  0  0  0  0
   -2.6621   -2.1661    1.3261 H   0  0  0  0  0  0  0  0  0  0  0  0
   -1.0410   -2.1001   -2.6762 H   0  0  0  0  0  0  0  0  0  0  0  0
   -1.8061   -5.2857    0.2166 H   0  0  0  0  0  0  0  0  0  0  0  0
    2.2610   -7.2026    1.1594 H   0  0  0  0  0  0  0  0  0  0  0  0
    4.6073   -6.4128    1.2217 H   0  0  0  0  0  0  0  0  0  0  0  0
    5.1345   -4.0545    0.6836 H   0  0  0  0  0  0  0  0  0  0  0  0
  1  2  1  0
  2  3  1  0
  3  4  2  0
  4  5  1  0
  5  6  2  0
  6  7  1  0
  6  8  1  0
  8  9  1  0
  9 10  1  0
 10 11  1  0
 11 12  1  0
 12 13  1  0
 13 14  1  0
 14 15  1  0
 15 16  1  0
 16 17  1  0
 17 18  1  0
 18 19  1  0
 19 20  1  0
 20 21  1  0
 21 22  1  0
 22 23  1  0
 23 24  1  0
 24 25  1  0
 25 26  1  0
 26 27  2  0
 27 28  1  0
 28 29  2  0
 27 30  1  0
 30 31  2  0
 31 32  1  0
 32 33  2  0
 33 34  1  0
 34 35  2  0
 35 36  1  0
 36 37  2  0
 37 38  1  0
 38 39  2  0
  8  2  2  0
 15 10  1  0
 24 19  1  0
 29 25  1  0
 39 30  1  0
 37  4  1  0
 38 33  1  0
  3 40  1  0
  5 41  1  0
  9 42  1  0
  9 43  1  0
 11 44  1  0
 11 45  1  0
 12 46  1  0
 12 47  1  0
 14 48  1  0
 14 49  1  0
 15 50  1  0
 16 51  1  0
 16 52  1  0
 18 53  1  0
 18 54  1  0
 19 55  1  0
 20 56  1  0
 20 57  1  0
 21 58  1  0
 22 59  1  0
 22 60  1  0
 23 61  1  0
 23 62  1  0
 24 63  1  0
 26 64  1  0
 28 65  1  0
 31 66  1  0
 34 67  1  0
 35 68  1  0
 36 69  1  0
M  END
>  <candidate_id>  (102) 
CAND_5580e1eed5

>  <source_generator>  (102) 
v5_3_model_guided_macrocycle

>  <parent_mol_id>  (102) 
JAK2_2dc2722230

>  <canonical_smiles>  (102) 
Fc1cc2cc(F)c1CN1CCOCC1COCC1CNCCC1n1cc(cn1)-c1cnc3cccc-2c3n1

>  <inchikey>  (102) 
UUPFRPQGCFAVPS-UHFFFAOYSA-N

>  <valid_rdkit>  (102) 
True

>  <unique_flag>  (102) 
True

>  <novel_flag>  (102) 
True

>  <mw>  (102) 
532.595

>  <logp>  (102) 
3.8201

>  <tpsa>  (102) 
77.33

>  <hbd>  (102) 
1

>  <hba>  (102) 
7

>  <rotatable_bonds>  (102) 
0

>  <qed>  (102) 
0.3691

>  <sa_score>  (102) 
5.164

>  <murcko_scaffold>  (102) 
c1cc2c3nc(cnc3c1)-c1cnn(c1)C1CCNCC1COCC1COCCN1Cc1ccc-2cc1

>  <max_ring_size>  (102) 
19

>  <has_macrocycle_12_20>  (102) 
True

>  <has_constrained_ring_8_11>  (102) 
False

>  <passes_basic_filters>  (102) 
True

>  <generation_notes>  (102) 
v5_3_model_guided_anchor_pair=17-31;anchor_scores=0.079,0.079;linker_length=3;target_ring=18;linker_prob=0.496;chemotype=oxa

$$$$
CAND_11be2ba7cd
     RDKit          3D

 71 76  0  0  0  0  0  0  0  0999 V2000
    0.3782    1.2963   -2.5282 C   0  0  0  0  0  0  0  0  0  0  0  0
   -0.2186    1.5311   -1.3391 C   0  0  0  0  0  0  0  0  0  0  0  0
   -1.1294    2.7104   -1.0591 C   0  0  0  0  0  0  0  0  0  0  0  0
   -2.6196    2.3255   -1.0104 C   0  0  0  0  0  0  0  0  0  0  0  0
   -3.1101    1.9212    0.3921 C   0  0  0  0  0  0  0  0  0  0  0  0
   -3.8444    0.5714    0.4167 C   0  0  0  0  0  0  0  0  0  0  0  0
   -5.1387    0.5792   -0.3989 C   0  0  0  0  0  0  0  0  0  0  0  0
   -6.0090   -0.5019    0.2361 C   0  0  0  0  0  0  0  0  0  0  0  0
   -5.2813   -0.9135    1.5094 C   0  0  0  0  0  0  0  0  0  0  0  0
   -4.3511    0.1881    1.7425 N   0  0  0  0  0  0  0  0  0  0  0  0
   -3.3530   -0.0792    2.7822 C   0  0  0  0  0  0  0  0  0  0  0  0
   -2.3536   -1.2318    2.5682 C   0  0  0  0  0  0  0  0  0  0  0  0
   -1.2723   -1.0645    3.5058 O   0  0  0  0  0  0  0  0  0  0  0  0
   -0.0985   -1.5473    2.9910 C   0  0  0  0  0  0  0  0  0  0  0  0
    0.2097   -2.8929    3.1818 C   0  0  0  0  0  0  0  0  0  0  0  0
    1.4042   -3.4145    2.6735 C   0  0  0  0  0  0  0  0  0  0  0  0
    2.3172   -2.6018    1.9867 C   0  0  0  0  0  0  0  0  0  0  0  0
    2.0017   -1.2426    1.8520 C   0  0  0  0  0  0  0  0  0  0  0  0
    0.7982   -0.6974    2.3363 C   0  0  0  0  0  0  0  0  0  0  0  0
    0.5233    0.7766    2.1501 C   0  0  0  0  0  0  0  0  0  0  0  0
    0.7760    1.2682    0.8282 O   0  0  0  0  0  0  0  0  0  0  0  0
    0.0395    0.5883   -0.1846 C   0  0  0  0  0  0  0  0  0  0  0  0
    3.4468   -3.1891    1.4020 N   0  0  0  0  0  0  0  0  0  0  0  0
    4.2791   -2.7705    0.3654 C   0  0  0  0  0  0  0  0  0  0  0  0
    5.2621   -3.6127    0.0106 N   0  0  0  0  0  0  0  0  0  0  0  0
    6.0280   -3.2570   -1.0421 C   0  0  0  0  0  0  0  0  0  0  0  0
    5.8501   -2.1026   -1.7630 C   0  0  0  0  0  0  0  0  0  0  0  0
    4.8266   -1.3032   -1.3221 C   0  0  0  0  0  0  0  0  0  0  0  0
    4.0523   -1.6176   -0.2681 N   0  0  0  0  0  0  0  0  0  0  0  0
    4.4496   -0.0383   -1.9437 C   0  0  0  0  0  0  0  0  0  0  0  0
    4.3217    1.1986   -1.3418 C   0  0  0  0  0  0  0  0  0  0  0  0
    3.7411    2.1662   -2.2079 C   0  0  0  0  0  0  0  0  0  0  0  0
    3.3985    1.6283   -3.4331 C   0  0  0  0  0  0  0  0  0  0  0  0
    3.9661    0.0169   -3.5860 S   0  0  0  0  0  0  0  0  0  0  0  0
    2.6044    2.2627   -4.5316 C   0  0  0  0  0  0  0  0  0  0  0  0
    1.4616    2.9126   -3.9616 O   0  0  0  0  0  0  0  0  0  0  0  0
    0.3095    2.0828   -3.8035 C   0  0  0  0  0  0  0  0  0  0  0  0
    1.0124    0.4145   -2.6007 H   0  0  0  0  0  0  0  0  0  0  0  0
   -1.0035    3.4698   -1.8389 H   0  0  0  0  0  0  0  0  0  0  0  0
   -0.8242    3.2115   -0.1326 H   0  0  0  0  0  0  0  0  0  0  0  0
   -2.8253    1.5430   -1.7503 H   0  0  0  0  0  0  0  0  0  0  0  0
   -3.2038    3.2007   -1.3234 H   0  0  0  0  0  0  0  0  0  0  0  0
   -3.7789    2.7071    0.7678 H   0  0  0  0  0  0  0  0  0  0  0  0
   -2.2674    1.8970    1.0883 H   0  0  0  0  0  0  0  0  0  0  0  0
   -3.1906   -0.2115    0.0133 H   0  0  0  0  0  0  0  0  0  0  0  0
   -5.6509    1.5471   -0.3308 H   0  0  0  0  0  0  0  0  0  0  0  0
   -4.9582    0.3711   -1.4585 H   0  0  0  0  0  0  0  0  0  0  0  0
   -7.0039   -0.1001    0.4586 H   0  0  0  0  0  0  0  0  0  0  0  0
   -6.1343   -1.3571   -0.4364 H   0  0  0  0  0  0  0  0  0  0  0  0
   -5.9784   -1.0457    2.3428 H   0  0  0  0  0  0  0  0  0  0  0  0
   -4.7603   -1.8629    1.3384 H   0  0  0  0  0  0  0  0  0  0  0  0
   -3.8793   -0.2640    3.7287 H   0  0  0  0  0  0  0  0  0  0  0  0
   -2.7980    0.8451    2.9817 H   0  0  0  0  0  0  0  0  0  0  0  0
   -2.8377   -2.1954    2.7644 H   0  0  0  0  0  0  0  0  0  0  0  0
   -1.9835   -1.2386    1.5384 H   0  0  0  0  0  0  0  0  0  0  0  0
   -0.4799   -3.5398    3.7163 H   0  0  0  0  0  0  0  0  0  0  0  0
    1.6070   -4.4745    2.8043 H   0  0  0  0  0  0  0  0  0  0  0  0
    2.6933   -0.5679    1.3515 H   0  0  0  0  0  0  0  0  0  0  0  0
   -0.5022    1.0425    2.4174 H   0  0  0  0  0  0  0  0  0  0  0  0
    1.1746    1.3351    2.8321 H   0  0  0  0  0  0  0  0  0  0  0  0
    0.6204   -0.2829   -0.5076 H   0  0  0  0  0  0  0  0  0  0  0  0
   -0.9138    0.2173    0.1938 H   0  0  0  0  0  0  0  0  0  0  0  0
    3.7156   -4.1096    1.7126 H   0  0  0  0  0  0  0  0  0  0  0  0
    6.8143   -3.9614   -1.2987 H   0  0  0  0  0  0  0  0  0  0  0  0
    6.4750   -1.8463   -2.6059 H   0  0  0  0  0  0  0  0  0  0  0  0
    4.5655    1.3803   -0.3016 H   0  0  0  0  0  0  0  0  0  0  0  0
    3.4844    3.1772   -1.9126 H   0  0  0  0  0  0  0  0  0  0  0  0
    3.2166    3.0402   -5.0017 H   0  0  0  0  0  0  0  0  0  0  0  0
    2.3034    1.5605   -5.3168 H   0  0  0  0  0  0  0  0  0  0  0  0
   -0.5639    2.7408   -3.8128 H   0  0  0  0  0  0  0  0  0  0  0  0
    0.1895    1.4110   -4.6614 H   0  0  0  0  0  0  0  0  0  0  0  0
  1  2  2  0
  2  3  1  0
  3  4  1  0
  4  5  1  0
  5  6  1  0
  6  7  1  0
  7  8  1  0
  8  9  1  0
  9 10  1  0
 10 11  1  0
 11 12  1  0
 12 13  1  0
 13 14  1  0
 14 15  2  0
 15 16  1  0
 16 17  2  0
 17 18  1  0
 18 19  2  0
 19 20  1  0
 20 21  1  0
 21 22  1  0
 17 23  1  0
 23 24  1  0
 24 25  1  0
 25 26  2  0
 26 27  1  0
 27 28  2  0
 28 29  1  0
 28 30  1  0
 30 31  2  0
 31 32  1  0
 32 33  2  0
 33 34  1  0
 33 35  1  0
 35 36  1  0
 36 37  1  0
 37  1  1  0
 22  2  1  0
 29 24  2  0
 34 30  1  0
 10  6  1  0
 19 14  1  0
  1 38  1  0
  3 39  1  0
  3 40  1  0
  4 41  1  0
  4 42  1  0
  5 43  1  0
  5 44  1  0
  6 45  1  0
  7 46  1  0
  7 47  1  0
  8 48  1  0
  8 49  1  0
  9 50  1  0
  9 51  1  0
 11 52  1  0
 11 53  1  0
 12 54  1  0
 12 55  1  0
 15 56  1  0
 16 57  1  0
 18 58  1  0
 20 59  1  0
 20 60  1  0
 22 61  1  0
 22 62  1  0
 23 63  1  0
 26 64  1  0
 27 65  1  0
 31 66  1  0
 32 67  1  0
 35 68  1  0
 35 69  1  0
 37 70  1  0
 37 71  1  0
M  END
>  <candidate_id>  (103) 
CAND_11be2ba7cd

>  <source_generator>  (103) 
v5_3_model_guided_macrocycle

>  <parent_mol_id>  (103) 
JAK2_522c241c10

>  <canonical_smiles>  (103) 
C1=C2\CCCC3CCCN3CCOc3ccc(cc3COC2)Nc2nccc(n2)-c2ccc(s2)COC/1

>  <inchikey>  (103) 
INFVSFQAZWZRHB-SRZZPIQSSA-N

>  <valid_rdkit>  (103) 
True

>  <unique_flag>  (103) 
True

>  <novel_flag>  (103) 
True

>  <mw>  (103) 
518.683

>  <logp>  (103) 
5.949

>  <tpsa>  (103) 
68.74

>  <hbd>  (103) 
1

>  <hba>  (103) 
8

>  <rotatable_bonds>  (103) 
0

>  <qed>  (103) 
0.369

>  <sa_score>  (103) 
5.062

>  <murcko_scaffold>  (103) 
C1=C2\CCCC3CCCN3CCOc3ccc(cc3COC2)Nc2nccc(n2)-c2ccc(s2)COC/1

>  <max_ring_size>  (103) 
18

>  <has_macrocycle_12_20>  (103) 
True

>  <has_constrained_ring_8_11>  (103) 
False

>  <passes_basic_filters>  (103) 
True

>  <generation_notes>  (103) 
v5_3_model_guided_anchor_pair=1-15;anchor_scores=0.312,0.079;linker_length=3;target_ring=13;linker_prob=0.455;chemotype=oxa_aza

$$$$
CAND_ed05fcd36e
     RDKit          3D

 69 74  0  0  0  0  0  0  0  0999 V2000
   -1.3527    3.0214    0.1394 C   0  0  0  0  0  0  0  0  0  0  0  0
   -0.0601    2.9152    0.5203 C   0  0  0  0  0  0  0  0  0  0  0  0
    0.2908    2.1294    1.7709 C   0  0  0  0  0  0  0  0  0  0  0  0
   -0.2365    0.8006    1.7495 O   0  0  0  0  0  0  0  0  0  0  0  0
    0.4970   -0.0438    0.8582 C   0  0  0  0  0  0  0  0  0  0  0  0
    0.2934   -1.5056    1.1707 C   0  0  0  0  0  0  0  0  0  0  0  0
   -1.0068   -2.0303    1.3086 C   0  0  0  0  0  0  0  0  0  0  0  0
   -1.2377   -3.3924    1.5555 C   0  0  0  0  0  0  0  0  0  0  0  0
   -0.1195   -4.2323    1.6751 C   0  0  0  0  0  0  0  0  0  0  0  0
    1.1779   -3.7371    1.5252 C   0  0  0  0  0  0  0  0  0  0  0  0
    1.3757   -2.3877    1.2415 C   0  0  0  0  0  0  0  0  0  0  0  0
    2.6540   -1.9224    1.0893 O   0  0  0  0  0  0  0  0  0  0  0  0
    3.1824   -2.2191   -0.2142 C   0  0  0  0  0  0  0  0  0  0  0  0
    3.4720   -0.9212   -1.0027 C   0  0  0  0  0  0  0  0  0  0  0  0
    4.3374    0.0486   -0.3091 N   0  0  0  0  0  0  0  0  0  0  0  0
    5.6635   -0.4954   -0.0097 C   0  0  0  0  0  0  0  0  0  0  0  0
    6.4801    0.7484    0.2574 C   0  0  0  0  0  0  0  0  0  0  0  0
    5.9955    1.6942   -0.8224 C   0  0  0  0  0  0  0  0  0  0  0  0
    4.5182    1.3196   -1.0518 C   0  0  0  0  0  0  0  0  0  0  0  0
    3.5970    2.4368   -0.5060 C   0  0  0  0  0  0  0  0  0  0  0  0
    1.9469    2.4628   -1.2949 S   0  0  0  0  0  0  0  0  0  0  0  0
    1.0928    3.6057   -0.1652 C   0  0  0  0  0  0  0  0  0  0  0  0
   -2.5133   -3.9695    1.6156 N   0  0  0  0  0  0  0  0  0  0  0  0
   -3.7698   -3.5296    1.2088 C   0  0  0  0  0  0  0  0  0  0  0  0
   -4.7881   -4.3781    1.4252 N   0  0  0  0  0  0  0  0  0  0  0  0
   -6.0081   -3.9988    0.9953 C   0  0  0  0  0  0  0  0  0  0  0  0
   -6.2573   -2.8109    0.3557 C   0  0  0  0  0  0  0  0  0  0  0  0
   -5.1607   -2.0029    0.1883 C   0  0  0  0  0  0  0  0  0  0  0  0
   -3.9271   -2.3554    0.5969 N   0  0  0  0  0  0  0  0  0  0  0  0
   -5.2352   -0.6962   -0.4682 C   0  0  0  0  0  0  0  0  0  0  0  0
   -5.9099   -0.3088   -1.6109 C   0  0  0  0  0  0  0  0  0  0  0  0
   -5.6377    1.0474   -1.9734 C   0  0  0  0  0  0  0  0  0  0  0  0
   -4.7845    1.6663   -1.0830 C   0  0  0  0  0  0  0  0  0  0  0  0
   -4.3852    0.6269    0.2145 S   0  0  0  0  0  0  0  0  0  0  0  0
   -4.2056    3.0448   -1.1256 C   0  0  0  0  0  0  0  0  0  0  0  0
   -2.9005    2.9248   -1.6905 O   0  0  0  0  0  0  0  0  0  0  0  0
   -1.9209    3.7397   -1.0491 C   0  0  0  0  0  0  0  0  0  0  0  0
   -2.0865    2.5070    0.7574 H   0  0  0  0  0  0  0  0  0  0  0  0
   -0.1514    2.6388    2.6361 H   0  0  0  0  0  0  0  0  0  0  0  0
    1.3709    2.1028    1.9592 H   0  0  0  0  0  0  0  0  0  0  0  0
    1.5578    0.2037    0.9385 H   0  0  0  0  0  0  0  0  0  0  0  0
    0.1677    0.1384   -0.1696 H   0  0  0  0  0  0  0  0  0  0  0  0
   -1.8417   -1.3389    1.2226 H   0  0  0  0  0  0  0  0  0  0  0  0
   -0.2520   -5.2939    1.8660 H   0  0  0  0  0  0  0  0  0  0  0  0
    2.0279   -4.4055    1.6175 H   0  0  0  0  0  0  0  0  0  0  0  0
    2.5062   -2.8481   -0.8100 H   0  0  0  0  0  0  0  0  0  0  0  0
    4.1042   -2.7938   -0.0711 H   0  0  0  0  0  0  0  0  0  0  0  0
    2.5082   -0.4479   -1.2105 H   0  0  0  0  0  0  0  0  0  0  0  0
    3.9065   -1.1931   -1.9733 H   0  0  0  0  0  0  0  0  0  0  0  0
    5.6525   -1.1550    0.8644 H   0  0  0  0  0  0  0  0  0  0  0  0
    6.0815   -1.0421   -0.8636 H   0  0  0  0  0  0  0  0  0  0  0  0
    7.5568    0.5660    0.1970 H   0  0  0  0  0  0  0  0  0  0  0  0
    6.2542    1.1579    1.2497 H   0  0  0  0  0  0  0  0  0  0  0  0
    6.1595    2.7391   -0.5400 H   0  0  0  0  0  0  0  0  0  0  0  0
    6.5626    1.5071   -1.7431 H   0  0  0  0  0  0  0  0  0  0  0  0
    4.3745    1.1925   -2.1329 H   0  0  0  0  0  0  0  0  0  0  0  0
    3.4839    2.3341    0.5785 H   0  0  0  0  0  0  0  0  0  0  0  0
    4.0391    3.4197   -0.7006 H   0  0  0  0  0  0  0  0  0  0  0  0
    1.7823    4.0219    0.5774 H   0  0  0  0  0  0  0  0  0  0  0  0
    0.7485    4.4596   -0.7572 H   0  0  0  0  0  0  0  0  0  0  0  0
   -2.5854   -4.8985    1.9976 H   0  0  0  0  0  0  0  0  0  0  0  0
   -6.8065   -4.7086    1.1901 H   0  0  0  0  0  0  0  0  0  0  0  0
   -7.2482   -2.5327    0.0279 H   0  0  0  0  0  0  0  0  0  0  0  0
   -6.5192   -0.9800   -2.2023 H   0  0  0  0  0  0  0  0  0  0  0  0
   -6.0181    1.5283   -2.8655 H   0  0  0  0  0  0  0  0  0  0  0  0
   -4.8010    3.6969   -1.7742 H   0  0  0  0  0  0  0  0  0  0  0  0
   -4.1909    3.4894   -0.1224 H   0  0  0  0  0  0  0  0  0  0  0  0
   -2.3533    4.7029   -0.7560 H   0  0  0  0  0  0  0  0  0  0  0  0
   -1.1482    3.9368   -1.7965 H   0  0  0  0  0  0  0  0  0  0  0  0
  1  2  2  0
  2  3  1  0
  3  4  1  0
  4  5  1  0
  5  6  1  0
  6  7  1  0
  7  8  2  0
  8  9  1  0
  9 10  2  0
 10 11  1  0
 11 12  1  0
 12 13  1  0
 13 14  1  0
 14 15  1  0
 15 16  1  0
 16 17  1  0
 17 18  1  0
 18 19  1  0
 19 20  1  0
 20 21  1  0
 21 22  1  0
  8 23  1  0
 23 24  1  0
 24 25  1  0
 25 26  2  0
 26 27  1  0
 27 28  2  0
 28 29  1  0
 28 30  1  0
 30 31  2  0
 31 32  1  0
 32 33  2  0
 33 34  1  0
 33 35  1  0
 35 36  1  0
 36 37  1  0
 37  1  1  0
 22  2  1  0
 29 24  2  0
 34 30  1  0
 11  6  2  0
 19 15  1  0
  1 38  1  0
  3 39  1  0
  3 40  1  0
  5 41  1  0
  5 42  1  0
  7 43  1  0
  9 44  1  0
 10 45  1  0
 13 46  1  0
 13 47  1  0
 14 48  1  0
 14 49  1  0
 16 50  1  0
 16 51  1  0
 17 52  1  0
 17 53  1  0
 18 54  1  0
 18 55  1  0
 19 56  1  0
 20 57  1  0
 20 58  1  0
 22 59  1  0
 22 60  1  0
 23 61  1  0
 26 62  1  0
 27 63  1  0
 31 64  1  0
 32 65  1  0
 35 66  1  0
 35 67  1  0
 37 68  1  0
 37 69  1  0
M  END
>  <candidate_id>  (104) 
CAND_ed05fcd36e

>  <source_generator>  (104) 
v5_3_model_guided_macrocycle

>  <parent_mol_id>  (104) 
JAK2_522c241c10

>  <canonical_smiles>  (104) 
C1=C2/COCc3cc(ccc3OCCN3CCCC3CSC2)Nc2nccc(n2)-c2ccc(s2)COC/1

>  <inchikey>  (104) 
FQBYPASYAZGICA-ZBKNUEDVSA-N

>  <valid_rdkit>  (104) 
True

>  <unique_flag>  (104) 
True

>  <novel_flag>  (104) 
True

>  <mw>  (104) 
536.723

>  <logp>  (104) 
5.5119

>  <tpsa>  (104) 
68.74

>  <hbd>  (104) 
1

>  <hba>  (104) 
9

>  <rotatable_bonds>  (104) 
0

>  <qed>  (104) 
0.3773

>  <sa_score>  (104) 
4.943

>  <murcko_scaffold>  (104) 
C1=C2/COCc3cc(ccc3OCCN3CCCC3CSC2)Nc2nccc(n2)-c2ccc(s2)COC/1

>  <max_ring_size>  (104) 
18

>  <has_macrocycle_12_20>  (104) 
True

>  <has_constrained_ring_8_11>  (104) 
False

>  <passes_basic_filters>  (104) 
True

>  <generation_notes>  (104) 
v5_3_model_guided_anchor_pair=1-15;anchor_scores=0.312,0.079;linker_length=3;target_ring=13;linker_prob=0.455;chemotype=thioether

$$$$
CAND_206c165320
     RDKit          3D

 70 75  0  0  0  0  0  0  0  0999 V2000
    0.7513    2.6406    1.3471 C   0  0  0  0  0  0  0  0  0  0  0  0
   -0.0910    1.8739    0.6189 C   0  0  0  0  0  0  0  0  0  0  0  0
   -1.0626    2.4268   -0.4063 C   0  0  0  0  0  0  0  0  0  0  0  0
   -2.3160    1.6891   -0.5246 N   0  0  0  0  0  0  0  0  0  0  0  0
   -3.2269    1.8466    0.6177 C   0  0  0  0  0  0  0  0  0  0  0  0
   -4.4948    0.9435    0.5207 C   0  0  0  0  0  0  0  0  0  0  0  0
   -5.5192    1.4874   -0.4863 C   0  0  0  0  0  0  0  0  0  0  0  0
   -6.0984    0.2649   -1.1907 C   0  0  0  0  0  0  0  0  0  0  0  0
   -5.5507   -0.9251   -0.4258 C   0  0  0  0  0  0  0  0  0  0  0  0
   -4.2567   -0.4297    0.0333 N   0  0  0  0  0  0  0  0  0  0  0  0
   -3.6150   -1.3132    1.0111 C   0  0  0  0  0  0  0  0  0  0  0  0
   -2.7675   -2.3928    0.3144 C   0  0  0  0  0  0  0  0  0  0  0  0
   -1.9210   -3.0317    1.2924 O   0  0  0  0  0  0  0  0  0  0  0  0
   -0.6643   -3.2425    0.7836 C   0  0  0  0  0  0  0  0  0  0  0  0
   -0.4612   -4.2346   -0.1764 C   0  0  0  0  0  0  0  0  0  0  0  0
    0.8057   -4.4087   -0.7465 C   0  0  0  0  0  0  0  0  0  0  0  0
    1.8877   -3.6062   -0.3618 C   0  0  0  0  0  0  0  0  0  0  0  0
    1.6684   -2.6558    0.6424 C   0  0  0  0  0  0  0  0  0  0  0  0
    0.4065   -2.4653    1.2322 C   0  0  0  0  0  0  0  0  0  0  0  0
    0.2538   -1.3949    2.2834 C   0  0  0  0  0  0  0  0  0  0  0  0
    0.6908   -0.1064    1.8333 O   0  0  0  0  0  0  0  0  0  0  0  0
   -0.0664    0.3593    0.7119 C   0  0  0  0  0  0  0  0  0  0  0  0
    3.1045   -3.7110   -1.0453 N   0  0  0  0  0  0  0  0  0  0  0  0
    4.1286   -2.7849   -1.2352 C   0  0  0  0  0  0  0  0  0  0  0  0
    5.2481   -3.2468   -1.8146 N   0  0  0  0  0  0  0  0  0  0  0  0
    6.2468   -2.3634   -2.0100 C   0  0  0  0  0  0  0  0  0  0  0  0
    6.1712   -1.0368   -1.6666 C   0  0  0  0  0  0  0  0  0  0  0  0
    4.9778   -0.6467   -1.1096 C   0  0  0  0  0  0  0  0  0  0  0  0
    3.9646   -1.5031   -0.8874 N   0  0  0  0  0  0  0  0  0  0  0  0
    4.7283    0.7324   -0.6867 C   0  0  0  0  0  0  0  0  0  0  0  0
    5.4927    1.5521    0.1221 C   0  0  0  0  0  0  0  0  0  0  0  0
    4.8862    2.8256    0.3377 C   0  0  0  0  0  0  0  0  0  0  0  0
    3.6817    2.9556   -0.3250 C   0  0  0  0  0  0  0  0  0  0  0  0
    3.3160    1.5453   -1.2251 S   0  0  0  0  0  0  0  0  0  0  0  0
    2.7475    4.1268   -0.3417 C   0  0  0  0  0  0  0  0  0  0  0  0
    2.3492    4.3965    1.0056 O   0  0  0  0  0  0  0  0  0  0  0  0
    0.9711    4.1173    1.2643 C   0  0  0  0  0  0  0  0  0  0  0  0
    1.4267    2.1460    2.0456 H   0  0  0  0  0  0  0  0  0  0  0  0
   -1.2890    3.4832   -0.2324 H   0  0  0  0  0  0  0  0  0  0  0  0
   -0.5605    2.3720   -1.3803 H   0  0  0  0  0  0  0  0  0  0  0  0
   -2.7968    1.9304   -1.3875 H   0  0  0  0  0  0  0  0  0  0  0  0
   -3.5374    2.8949    0.7049 H   0  0  0  0  0  0  0  0  0  0  0  0
   -2.7046    1.5879    1.5457 H   0  0  0  0  0  0  0  0  0  0  0  0
   -4.9742    0.9116    1.5095 H   0  0  0  0  0  0  0  0  0  0  0  0
   -5.0795    2.1671   -1.2244 H   0  0  0  0  0  0  0  0  0  0  0  0
   -6.3083    2.0389    0.0376 H   0  0  0  0  0  0  0  0  0  0  0  0
   -7.1926    0.2783   -1.2035 H   0  0  0  0  0  0  0  0  0  0  0  0
   -5.7505    0.2422   -2.2308 H   0  0  0  0  0  0  0  0  0  0  0  0
   -6.2146   -1.1682    0.4133 H   0  0  0  0  0  0  0  0  0  0  0  0
   -5.4582   -1.8058   -1.0687 H   0  0  0  0  0  0  0  0  0  0  0  0
   -2.9541   -0.7429    1.6720 H   0  0  0  0  0  0  0  0  0  0  0  0
   -4.3420   -1.7801    1.6882 H   0  0  0  0  0  0  0  0  0  0  0  0
   -3.4145   -3.1562   -0.1329 H   0  0  0  0  0  0  0  0  0  0  0  0
   -2.1772   -1.9275   -0.4879 H   0  0  0  0  0  0  0  0  0  0  0  0
   -1.2896   -4.8559   -0.5034 H   0  0  0  0  0  0  0  0  0  0  0  0
    0.9305   -5.1560   -1.5258 H   0  0  0  0  0  0  0  0  0  0  0  0
    2.4861   -2.0195    0.9776 H   0  0  0  0  0  0  0  0  0  0  0  0
   -0.7711   -1.3120    2.6600 H   0  0  0  0  0  0  0  0  0  0  0  0
    0.8746   -1.6651    3.1455 H   0  0  0  0  0  0  0  0  0  0  0  0
    0.3693   -0.0469   -0.2078 H   0  0  0  0  0  0  0  0  0  0  0  0
   -1.0843   -0.0126    0.8079 H   0  0  0  0  0  0  0  0  0  0  0  0
    3.3240   -4.5851   -1.4949 H   0  0  0  0  0  0  0  0  0  0  0  0
    7.1415   -2.7729   -2.4701 H   0  0  0  0  0  0  0  0  0  0  0  0
    6.9879   -0.3516   -1.8414 H   0  0  0  0  0  0  0  0  0  0  0  0
    6.4267    1.2427    0.5747 H   0  0  0  0  0  0  0  0  0  0  0  0
    5.2994    3.6048    0.9673 H   0  0  0  0  0  0  0  0  0  0  0  0
    1.8895    3.9830   -1.0089 H   0  0  0  0  0  0  0  0  0  0  0  0
    3.2930    5.0069   -0.7006 H   0  0  0  0  0  0  0  0  0  0  0  0
    0.3492    4.6282    0.5244 H   0  0  0  0  0  0  0  0  0  0  0  0
    0.7339    4.5563    2.2392 H   0  0  0  0  0  0  0  0  0  0  0  0
  1  2  2  0
  2  3  1  0
  3  4  1  0
  4  5  1  0
  5  6  1  0
  6  7  1  0
  7  8  1  0
  8  9  1  0
  9 10  1  0
 10 11  1  0
 11 12  1  0
 12 13  1  0
 13 14  1  0
 14 15  2  0
 15 16  1  0
 16 17  2  0
 17 18  1  0
 18 19  2  0
 19 20  1  0
 20 21  1  0
 21 22  1  0
 17 23  1  0
 23 24  1  0
 24 25  1  0
 25 26  2  0
 26 27  1  0
 27 28  2  0
 28 29  1  0
 28 30  1  0
 30 31  2  0
 31 32  1  0
 32 33  2  0
 33 34  1  0
 33 35  1  0
 35 36  1  0
 36 37  1  0
 37  1  1  0
 22  2  1  0
 29 24  2  0
 34 30  1  0
 10  6  1  0
 19 14  1  0
  1 38  1  0
  3 39  1  0
  3 40  1  0
  4 41  1  0
  5 42  1  0
  5 43  1  0
  6 44  1  0
  7 45  1  0
  7 46  1  0
  8 47  1  0
  8 48  1  0
  9 49  1  0
  9 50  1  0
 11 51  1  0
 11 52  1  0
 12 53  1  0
 12 54  1  0
 15 55  1  0
 16 56  1  0
 18 57  1  0
 20 58  1  0
 20 59  1  0
 22 60  1  0
 22 61  1  0
 23 62  1  0
 26 63  1  0
 27 64  1  0
 31 65  1  0
 32 66  1  0
 35 67  1  0
 35 68  1  0
 37 69  1  0
 37 70  1  0
M  END
>  <candidate_id>  (105) 
CAND_206c165320

>  <source_generator>  (105) 
v5_3_model_guided_macrocycle

>  <parent_mol_id>  (105) 
JAK2_522c241c10

>  <canonical_smiles>  (105) 
C1=C2\CNCC3CCCN3CCOc3ccc(cc3COC2)Nc2nccc(n2)-c2ccc(s2)COC/1

>  <inchikey>  (105) 
QYOFYWOOYFUVBS-DNTJNYDQSA-N

>  <valid_rdkit>  (105) 
True

>  <unique_flag>  (105) 
True

>  <novel_flag>  (105) 
True

>  <mw>  (105) 
519.671

>  <logp>  (105) 
4.3683

>  <tpsa>  (105) 
80.77

>  <hbd>  (105) 
2

>  <hba>  (105) 
9

>  <rotatable_bonds>  (105) 
0

>  <qed>  (105) 
0.4241

>  <sa_score>  (105) 
4.593

>  <murcko_scaffold>  (105) 
C1=C2\CNCC3CCCN3CCOc3ccc(cc3COC2)Nc2nccc(n2)-c2ccc(s2)COC/1

>  <max_ring_size>  (105) 
18

>  <has_macrocycle_12_20>  (105) 
True

>  <has_constrained_ring_8_11>  (105) 
False

>  <passes_basic_filters>  (105) 
True

>  <generation_notes>  (105) 
v5_3_model_guided_anchor_pair=1-15;anchor_scores=0.312,0.079;linker_length=3;target_ring=13;linker_prob=0.455;chemotype=aza

$$$$
CAND_72609efe2c
     RDKit          3D

 69 74  0  0  0  0  0  0  0  0999 V2000
    0.9985    2.4577    1.3480 C   0  0  0  0  0  0  0  0  0  0  0  0
    0.2822    2.0110    0.2944 C   0  0  0  0  0  0  0  0  0  0  0  0
    0.3470    0.5471   -0.0606 C   0  0  0  0  0  0  0  0  0  0  0  0
    0.7478    0.3922   -1.4218 O   0  0  0  0  0  0  0  0  0  0  0  0
   -0.0647   -0.5610   -2.1247 C   0  0  0  0  0  0  0  0  0  0  0  0
    0.0396   -1.9512   -1.5384 C   0  0  0  0  0  0  0  0  0  0  0  0
    1.2967   -2.4233   -1.1147 C   0  0  0  0  0  0  0  0  0  0  0  0
    1.4630   -3.6690   -0.5017 C   0  0  0  0  0  0  0  0  0  0  0  0
    0.3345   -4.4922   -0.4027 C   0  0  0  0  0  0  0  0  0  0  0  0
   -0.9209   -4.0589   -0.8522 C   0  0  0  0  0  0  0  0  0  0  0  0
   -1.0769   -2.7746   -1.3773 C   0  0  0  0  0  0  0  0  0  0  0  0
   -2.2947   -2.3208   -1.8068 O   0  0  0  0  0  0  0  0  0  0  0  0
   -3.3094   -2.2871   -0.7896 C   0  0  0  0  0  0  0  0  0  0  0  0
   -3.5446   -0.8507   -0.2585 C   0  0  0  0  0  0  0  0  0  0  0  0
   -4.0438    0.1109   -1.2608 N   0  0  0  0  0  0  0  0  0  0  0  0
   -5.4590   -0.1284   -1.5920 C   0  0  0  0  0  0  0  0  0  0  0  0
   -6.2710    0.6546   -0.5655 C   0  0  0  0  0  0  0  0  0  0  0  0
   -5.2972    1.6598    0.0372 C   0  0  0  0  0  0  0  0  0  0  0  0
   -4.0398    1.5359   -0.8206 C   0  0  0  0  0  0  0  0  0  0  0  0
   -2.7954    2.1509   -0.1396 C   0  0  0  0  0  0  0  0  0  0  0  0
   -1.7239    2.2007   -1.0798 O   0  0  0  0  0  0  0  0  0  0  0  0
   -0.5468    2.8725   -0.6230 C   0  0  0  0  0  0  0  0  0  0  0  0
    2.6661   -4.0662    0.0960 N   0  0  0  0  0  0  0  0  0  0  0  0
    3.7444   -3.3198    0.5736 C   0  0  0  0  0  0  0  0  0  0  0  0
    4.7329   -4.0080    1.1657 N   0  0  0  0  0  0  0  0  0  0  0  0
    5.7448   -3.2934    1.7017 C   0  0  0  0  0  0  0  0  0  0  0  0
    5.8107   -1.9221    1.6816 C   0  0  0  0  0  0  0  0  0  0  0  0
    4.7609   -1.3052    1.0503 C   0  0  0  0  0  0  0  0  0  0  0  0
    3.7412   -1.9853    0.4953 N   0  0  0  0  0  0  0  0  0  0  0  0
    4.6281    0.1431    0.9107 C   0  0  0  0  0  0  0  0  0  0  0  0
    4.4334    0.8700   -0.2481 C   0  0  0  0  0  0  0  0  0  0  0  0
    4.1680    2.2448    0.0079 C   0  0  0  0  0  0  0  0  0  0  0  0
    4.1110    2.5220    1.3601 C   0  0  0  0  0  0  0  0  0  0  0  0
    4.5837    1.1584    2.2910 S   0  0  0  0  0  0  0  0  0  0  0  0
    3.6670    3.7871    2.0330 C   0  0  0  0  0  0  0  0  0  0  0  0
    2.5319    4.3166    1.3328 O   0  0  0  0  0  0  0  0  0  0  0  0
    1.2571    3.8615    1.7972 C   0  0  0  0  0  0  0  0  0  0  0  0
    1.5304    1.7130    1.9375 H   0  0  0  0  0  0  0  0  0  0  0  0
   -0.6217    0.0911    0.1452 H   0  0  0  0  0  0  0  0  0  0  0  0
    1.0831    0.0192    0.5566 H   0  0  0  0  0  0  0  0  0  0  0  0
    0.2923   -0.5933   -3.1600 H   0  0  0  0  0  0  0  0  0  0  0  0
   -1.0940   -0.1915   -2.1501 H   0  0  0  0  0  0  0  0  0  0  0  0
    2.1533   -1.7664   -1.2522 H   0  0  0  0  0  0  0  0  0  0  0  0
    0.4148   -5.4766    0.0512 H   0  0  0  0  0  0  0  0  0  0  0  0
   -1.7725   -4.7286   -0.7773 H   0  0  0  0  0  0  0  0  0  0  0  0
   -3.0677   -2.9326    0.0641 H   0  0  0  0  0  0  0  0  0  0  0  0
   -4.2226   -2.6963   -1.2324 H   0  0  0  0  0  0  0  0  0  0  0  0
   -4.2198   -0.9041    0.6042 H   0  0  0  0  0  0  0  0  0  0  0  0
   -2.5825   -0.5066    0.1172 H   0  0  0  0  0  0  0  0  0  0  0  0
   -5.7487   -1.1826   -1.6253 H   0  0  0  0  0  0  0  0  0  0  0  0
   -5.6531    0.2752   -2.5940 H   0  0  0  0  0  0  0  0  0  0  0  0
   -7.1214    1.1563   -1.0388 H   0  0  0  0  0  0  0  0  0  0  0  0
   -6.6608   -0.0049    0.2178 H   0  0  0  0  0  0  0  0  0  0  0  0
   -5.7060    2.6754    0.0149 H   0  0  0  0  0  0  0  0  0  0  0  0
   -5.0952    1.4022    1.0838 H   0  0  0  0  0  0  0  0  0  0  0  0
   -4.1943    2.1218   -1.7394 H   0  0  0  0  0  0  0  0  0  0  0  0
   -3.0345    3.1747    0.1733 H   0  0  0  0  0  0  0  0  0  0  0  0
   -2.5026    1.5896    0.7530 H   0  0  0  0  0  0  0  0  0  0  0  0
    0.0482    3.0991   -1.5148 H   0  0  0  0  0  0  0  0  0  0  0  0
   -0.8299    3.8287   -0.1729 H   0  0  0  0  0  0  0  0  0  0  0  0
    2.7919   -5.0430    0.3087 H   0  0  0  0  0  0  0  0  0  0  0  0
    6.5277   -3.8839    2.1693 H   0  0  0  0  0  0  0  0  0  0  0  0
    6.6337   -1.3781    2.1214 H   0  0  0  0  0  0  0  0  0  0  0  0
    4.4131    0.4197   -1.2339 H   0  0  0  0  0  0  0  0  0  0  0  0
    3.9186    2.9712   -0.7572 H   0  0  0  0  0  0  0  0  0  0  0  0
    4.4707    4.5269    1.9510 H   0  0  0  0  0  0  0  0  0  0  0  0
    3.4405    3.6566    3.0971 H   0  0  0  0  0  0  0  0  0  0  0  0
    1.1967    3.9380    2.8887 H   0  0  0  0  0  0  0  0  0  0  0  0
    0.5096    4.5502    1.3950 H   0  0  0  0  0  0  0  0  0  0  0  0
  1  2  2  0
  2  3  1  0
  3  4  1  0
  4  5  1  0
  5  6  1  0
  6  7  1  0
  7  8  2  0
  8  9  1  0
  9 10  2  0
 10 11  1  0
 11 12  1  0
 12 13  1  0
 13 14  1  0
 14 15  1  0
 15 16  1  0
 16 17  1  0
 17 18  1  0
 18 19  1  0
 19 20  1  0
 20 21  1  0
 21 22  1  0
  8 23  1  0
 23 24  1  0
 24 25  1  0
 25 26  2  0
 26 27  1  0
 27 28  2  0
 28 29  1  0
 28 30  1  0
 30 31  2  0
 31 32  1  0
 32 33  2  0
 33 34  1  0
 33 35  1  0
 35 36  1  0
 36 37  1  0
 37  1  1  0
 22  2  1  0
 29 24  2  0
 34 30  1  0
 11  6  2  0
 19 15  1  0
  1 38  1  0
  3 39  1  0
  3 40  1  0
  5 41  1  0
  5 42  1  0
  7 43  1  0
  9 44  1  0
 10 45  1  0
 13 46  1  0
 13 47  1  0
 14 48  1  0
 14 49  1  0
 16 50  1  0
 16 51  1  0
 17 52  1  0
 17 53  1  0
 18 54  1  0
 18 55  1  0
 19 56  1  0
 20 57  1  0
 20 58  1  0
 22 59  1  0
 22 60  1  0
 23 61  1  0
 26 62  1  0
 27 63  1  0
 31 64  1  0
 32 65  1  0
 35 66  1  0
 35 67  1  0
 37 68  1  0
 37 69  1  0
M  END
>  <candidate_id>  (106) 
CAND_72609efe2c

>  <source_generator>  (106) 
v5_3_model_guided_macrocycle

>  <parent_mol_id>  (106) 
JAK2_522c241c10

>  <canonical_smiles>  (106) 
C1=C2/COCc3cc(ccc3OCCN3CCCC3COC2)Nc2nccc(n2)-c2ccc(s2)COC/1

>  <inchikey>  (106) 
JXBJDMGUBWPEMC-ZBKNUEDVSA-N

>  <valid_rdkit>  (106) 
True

>  <unique_flag>  (106) 
True

>  <novel_flag>  (106) 
True

>  <mw>  (106) 
520.655

>  <logp>  (106) 
4.7953

>  <tpsa>  (106) 
77.97

>  <hbd>  (106) 
1

>  <hba>  (106) 
9

>  <rotatable_bonds>  (106) 
0

>  <qed>  (106) 
0.424

>  <sa_score>  (106) 
4.598

>  <murcko_scaffold>  (106) 
C1=C2/COCc3cc(ccc3OCCN3CCCC3COC2)Nc2nccc(n2)-c2ccc(s2)COC/1

>  <max_ring_size>  (106) 
18

>  <has_macrocycle_12_20>  (106) 
True

>  <has_constrained_ring_8_11>  (106) 
False

>  <passes_basic_filters>  (106) 
True

>  <generation_notes>  (106) 
v5_3_model_guided_anchor_pair=1-15;anchor_scores=0.312,0.079;linker_length=3;target_ring=13;linker_prob=0.455;chemotype=oxa

$$$$
CAND_a8632b2da2
     RDKit          3D

 69 74  0  0  0  0  0  0  0  0999 V2000
    0.5885    2.1018   -2.8462 C   0  0  0  0  0  0  0  0  0  0  0  0
   -0.3202    2.6749   -2.0259 C   0  0  0  0  0  0  0  0  0  0  0  0
   -0.5238    4.1692   -2.0559 C   0  0  0  0  0  0  0  0  0  0  0  0
    0.5935    4.8682   -1.5066 O   0  0  0  0  0  0  0  0  0  0  0  0
    0.6272    4.8829   -0.0798 C   0  0  0  0  0  0  0  0  0  0  0  0
    1.7597    4.0121    0.3657 C   0  0  0  0  0  0  0  0  0  0  0  0
    3.0839    4.0588   -0.0227 C   0  0  0  0  0  0  0  0  0  0  0  0
    3.8724    3.0515    0.6070 C   0  0  0  0  0  0  0  0  0  0  0  0
    3.1262    2.2519    1.4492 C   0  0  0  0  0  0  0  0  0  0  0  0
    1.4949    2.7737    1.5158 S   0  0  0  0  0  0  0  0  0  0  0  0
    3.5402    1.0881    2.2274 C   0  0  0  0  0  0  0  0  0  0  0  0
    4.5254    1.1507    3.1812 C   0  0  0  0  0  0  0  0  0  0  0  0
    4.7864   -0.0349    3.8208 C   0  0  0  0  0  0  0  0  0  0  0  0
    4.1535   -1.1926    3.5436 N   0  0  0  0  0  0  0  0  0  0  0  0
    3.2273   -1.1648    2.5724 C   0  0  0  0  0  0  0  0  0  0  0  0
    2.8973   -0.0492    1.9144 N   0  0  0  0  0  0  0  0  0  0  0  0
    2.5795   -2.3667    2.2976 N   0  0  0  0  0  0  0  0  0  0  0  0
    1.6856   -2.7155    1.2795 C   0  0  0  0  0  0  0  0  0  0  0  0
    0.7901   -3.7698    1.4785 C   0  0  0  0  0  0  0  0  0  0  0  0
   -0.1949   -4.0747    0.5281 C   0  0  0  0  0  0  0  0  0  0  0  0
   -0.3176   -3.3160   -0.6377 C   0  0  0  0  0  0  0  0  0  0  0  0
    0.6152   -2.3024   -0.8960 C   0  0  0  0  0  0  0  0  0  0  0  0
    1.5896   -2.0074    0.0774 C   0  0  0  0  0  0  0  0  0  0  0  0
    0.6297   -1.5234   -2.1898 C   0  0  0  0  0  0  0  0  0  0  0  0
    0.6502   -0.1277   -1.8974 O   0  0  0  0  0  0  0  0  0  0  0  0
    0.9282    0.6525   -3.0468 C   0  0  0  0  0  0  0  0  0  0  0  0
   -1.2784   -3.5264   -1.5865 O   0  0  0  0  0  0  0  0  0  0  0  0
   -2.5920   -3.8823   -1.1457 C   0  0  0  0  0  0  0  0  0  0  0  0
   -3.5962   -2.7079   -1.2392 C   0  0  0  0  0  0  0  0  0  0  0  0
   -3.6568   -1.6920   -0.1775 N   0  0  0  0  0  0  0  0  0  0  0  0
   -3.6228   -2.1984    1.1892 C   0  0  0  0  0  0  0  0  0  0  0  0
   -3.3836   -0.9379    1.9902 C   0  0  0  0  0  0  0  0  0  0  0  0
   -2.3480   -0.2101    1.1528 C   0  0  0  0  0  0  0  0  0  0  0  0
   -2.6652   -0.6050   -0.3006 C   0  0  0  0  0  0  0  0  0  0  0  0
   -3.2267    0.5918   -1.1053 C   0  0  0  0  0  0  0  0  0  0  0  0
   -2.2413    1.2924   -1.8749 O   0  0  0  0  0  0  0  0  0  0  0  0
   -1.2267    1.9170   -1.0935 C   0  0  0  0  0  0  0  0  0  0  0  0
    1.1619    2.7653   -3.4928 H   0  0  0  0  0  0  0  0  0  0  0  0
   -0.6154    4.4918   -3.1006 H   0  0  0  0  0  0  0  0  0  0  0  0
   -1.4539    4.4858   -1.5698 H   0  0  0  0  0  0  0  0  0  0  0  0
    0.8346    5.9133    0.2295 H   0  0  0  0  0  0  0  0  0  0  0  0
   -0.3348    4.5984    0.3610 H   0  0  0  0  0  0  0  0  0  0  0  0
    3.4582    4.7698   -0.7489 H   0  0  0  0  0  0  0  0  0  0  0  0
    4.9257    2.8951    0.4125 H   0  0  0  0  0  0  0  0  0  0  0  0
    5.0446    2.0652    3.4277 H   0  0  0  0  0  0  0  0  0  0  0  0
    5.5344   -0.0944    4.6057 H   0  0  0  0  0  0  0  0  0  0  0  0
    2.8328   -3.0706    2.9717 H   0  0  0  0  0  0  0  0  0  0  0  0
    0.8341   -4.3575    2.3918 H   0  0  0  0  0  0  0  0  0  0  0  0
   -0.8480   -4.9176    0.7263 H   0  0  0  0  0  0  0  0  0  0  0  0
    2.2848   -1.1969   -0.1324 H   0  0  0  0  0  0  0  0  0  0  0  0
   -0.2489   -1.7318   -2.8091 H   0  0  0  0  0  0  0  0  0  0  0  0
    1.5265   -1.8066   -2.7540 H   0  0  0  0  0  0  0  0  0  0  0  0
    0.3754    0.2830   -3.9173 H   0  0  0  0  0  0  0  0  0  0  0  0
    1.9998    0.5696   -3.2565 H   0  0  0  0  0  0  0  0  0  0  0  0
   -2.9306   -4.6465   -1.8568 H   0  0  0  0  0  0  0  0  0  0  0  0
   -2.6338   -4.3737   -0.1715 H   0  0  0  0  0  0  0  0  0  0  0  0
   -4.5961   -3.1589   -1.2718 H   0  0  0  0  0  0  0  0  0  0  0  0
   -3.4679   -2.2077   -2.2069 H   0  0  0  0  0  0  0  0  0  0  0  0
   -4.5609   -2.6852    1.4706 H   0  0  0  0  0  0  0  0  0  0  0  0
   -2.7960   -2.8903    1.3708 H   0  0  0  0  0  0  0  0  0  0  0  0
   -3.0262   -1.1434    3.0032 H   0  0  0  0  0  0  0  0  0  0  0  0
   -4.3017   -0.3427    2.0615 H   0  0  0  0  0  0  0  0  0  0  0  0
   -2.3725    0.8662    1.3448 H   0  0  0  0  0  0  0  0  0  0  0  0
   -1.3490   -0.5759    1.4197 H   0  0  0  0  0  0  0  0  0  0  0  0
   -1.7500   -0.9515   -0.7758 H   0  0  0  0  0  0  0  0  0  0  0  0
   -3.7669    1.3016   -0.4683 H   0  0  0  0  0  0  0  0  0  0  0  0
   -3.9503    0.2280   -1.8438 H   0  0  0  0  0  0  0  0  0  0  0  0
   -0.6625    1.1889   -0.5086 H   0  0  0  0  0  0  0  0  0  0  0  0
   -1.6974    2.5970   -0.3747 H   0  0  0  0  0  0  0  0  0  0  0  0
  1  2  2  0
  2  3  1  0
  3  4  1  0
  4  5  1  0
  5  6  1  0
  6  7  2  0
  7  8  1  0
  8  9  2  0
  9 10  1  0
  9 11  1  0
 11 12  2  0
 12 13  1  0
 13 14  2  0
 14 15  1  0
 15 16  2  0
 15 17  1  0
 17 18  1  0
 18 19  2  0
 19 20  1  0
 20 21  2  0
 21 22  1  0
 22 23  2  0
 22 24  1  0
 24 25  1  0
 25 26  1  0
 21 27  1  0
 27 28  1  0
 28 29  1  0
 29 30  1  0
 30 31  1  0
 31 32  1  0
 32 33  1  0
 33 34  1  0
 34 35  1  0
 35 36  1  0
 36 37  1  0
 26  1  1  0
 34 30  1  0
 37  2  1  0
 10  6  1  0
 16 11  1  0
 23 18  1  0
  1 38  1  0
  3 39  1  0
  3 40  1  0
  5 41  1  0
  5 42  1  0
  7 43  1  0
  8 44  1  0
 12 45  1  0
 13 46  1  0
 17 47  1  0
 19 48  1  0
 20 49  1  0
 23 50  1  0
 24 51  1  0
 24 52  1  0
 26 53  1  0
 26 54  1  0
 28 55  1  0
 28 56  1  0
 29 57  1  0
 29 58  1  0
 31 59  1  0
 31 60  1  0
 32 61  1  0
 32 62  1  0
 33 63  1  0
 33 64  1  0
 34 65  1  0
 35 66  1  0
 35 67  1  0
 37 68  1  0
 37 69  1  0
M  END
>  <candidate_id>  (107) 
CAND_a8632b2da2

>  <source_generator>  (107) 
v5_3_model_guided_macrocycle

>  <parent_mol_id>  (107) 
JAK2_522c241c10

>  <canonical_smiles>  (107) 
C1=C2/COCc3ccc(s3)-c3ccnc(n3)Nc3ccc(c(c3)COC/1)OCCN1CCCC1COC2

>  <inchikey>  (107) 
JSEGKOBQMVJPKG-DNTJNYDQSA-N

>  <valid_rdkit>  (107) 
True

>  <unique_flag>  (107) 
True

>  <novel_flag>  (107) 
True

>  <mw>  (107) 
520.655

>  <logp>  (107) 
4.7953

>  <tpsa>  (107) 
77.97

>  <hbd>  (107) 
1

>  <hba>  (107) 
9

>  <rotatable_bonds>  (107) 
0

>  <qed>  (107) 
0.424

>  <sa_score>  (107) 
4.598

>  <murcko_scaffold>  (107) 
C1=C2/COCc3ccc(s3)-c3ccnc(n3)Nc3ccc(c(c3)COC/1)OCCN1CCCC1COC2

>  <max_ring_size>  (107) 
18

>  <has_macrocycle_12_20>  (107) 
True

>  <has_constrained_ring_8_11>  (107) 
False

>  <passes_basic_filters>  (107) 
True

>  <generation_notes>  (107) 
v5_3_model_guided_anchor_pair=0-15;anchor_scores=0.312,0.079;linker_length=3;target_ring=14;linker_prob=0.414;chemotype=oxa

$$$$
CAND_ec7238a2dd
     RDKit          3D

 69 74  0  0  0  0  0  0  0  0999 V2000
    0.6986    2.3520   -1.7793 C   0  0  0  0  0  0  0  0  0  0  0  0
    0.0700    2.7696   -0.6566 C   0  0  0  0  0  0  0  0  0  0  0  0
    0.4935    4.0072    0.1140 C   0  0  0  0  0  0  0  0  0  0  0  0
    1.7129    4.5725   -0.3778 O   0  0  0  0  0  0  0  0  0  0  0  0
    2.7796    4.5735    0.5773 C   0  0  0  0  0  0  0  0  0  0  0  0
    3.4566    3.2386    0.5489 C   0  0  0  0  0  0  0  0  0  0  0  0
    4.0315    2.6021   -0.5324 C   0  0  0  0  0  0  0  0  0  0  0  0
    4.4788    1.2909   -0.2118 C   0  0  0  0  0  0  0  0  0  0  0  0
    4.2771    0.9749    1.1173 C   0  0  0  0  0  0  0  0  0  0  0  0
    3.5872    2.2883    1.9701 S   0  0  0  0  0  0  0  0  0  0  0  0
    4.4886   -0.3116    1.7720 C   0  0  0  0  0  0  0  0  0  0  0  0
    5.3440   -0.5095    2.8259 C   0  0  0  0  0  0  0  0  0  0  0  0
    5.4014   -1.8042    3.2825 C   0  0  0  0  0  0  0  0  0  0  0  0
    4.6722   -2.8202    2.7698 N   0  0  0  0  0  0  0  0  0  0  0  0
    3.8539   -2.5276    1.7468 C   0  0  0  0  0  0  0  0  0  0  0  0
    3.7646   -1.3016    1.2233 N   0  0  0  0  0  0  0  0  0  0  0  0
    3.0196   -3.5487    1.2902 N   0  0  0  0  0  0  0  0  0  0  0  0
    1.9665   -3.4981    0.3652 C   0  0  0  0  0  0  0  0  0  0  0  0
    0.8496   -4.3203    0.5466 C   0  0  0  0  0  0  0  0  0  0  0  0
   -0.3116   -4.1294   -0.2113 C   0  0  0  0  0  0  0  0  0  0  0  0
   -0.3751   -3.1021   -1.1554 C   0  0  0  0  0  0  0  0  0  0  0  0
    0.7606   -2.3384   -1.4431 C   0  0  0  0  0  0  0  0  0  0  0  0
    1.9134   -2.5491   -0.6642 C   0  0  0  0  0  0  0  0  0  0  0  0
    0.7953   -1.2321   -2.4635 C   0  0  0  0  0  0  0  0  0  0  0  0
    0.7015   -0.0061   -1.7462 O   0  0  0  0  0  0  0  0  0  0  0  0
    0.4198    1.1123   -2.5735 C   0  0  0  0  0  0  0  0  0  0  0  0
   -1.6049   -2.8761   -1.7249 O   0  0  0  0  0  0  0  0  0  0  0  0
   -2.1032   -1.5812   -1.3375 C   0  0  0  0  0  0  0  0  0  0  0  0
   -3.6178   -1.6313   -1.0866 C   0  0  0  0  0  0  0  0  0  0  0  0
   -4.1742   -0.2850   -0.8344 N   0  0  0  0  0  0  0  0  0  0  0  0
   -5.6443   -0.3017   -0.8621 C   0  0  0  0  0  0  0  0  0  0  0  0
   -6.1030   -0.5645    0.5649 C   0  0  0  0  0  0  0  0  0  0  0  0
   -4.8807   -0.3167    1.4381 C   0  0  0  0  0  0  0  0  0  0  0  0
   -3.8118    0.2548    0.4982 C   0  0  0  0  0  0  0  0  0  0  0  0
   -3.8100    1.8044    0.5491 C   0  0  0  0  0  0  0  0  0  0  0  0
   -2.6639    2.6601   -0.6002 S   0  0  0  0  0  0  0  0  0  0  0  0
   -1.0687    2.0046   -0.0162 C   0  0  0  0  0  0  0  0  0  0  0  0
    1.5088    2.9580   -2.1767 H   0  0  0  0  0  0  0  0  0  0  0  0
   -0.2799    4.7754    0.0037 H   0  0  0  0  0  0  0  0  0  0  0  0
    0.5717    3.7723    1.1824 H   0  0  0  0  0  0  0  0  0  0  0  0
    3.4980    5.3366    0.2556 H   0  0  0  0  0  0  0  0  0  0  0  0
    2.4200    4.8681    1.5700 H   0  0  0  0  0  0  0  0  0  0  0  0
    4.0604    3.0340   -1.5250 H   0  0  0  0  0  0  0  0  0  0  0  0
    4.8876    0.5913   -0.9298 H   0  0  0  0  0  0  0  0  0  0  0  0
    5.9385    0.2835    3.2586 H   0  0  0  0  0  0  0  0  0  0  0  0
    6.0535   -2.0767    4.1088 H   0  0  0  0  0  0  0  0  0  0  0  0
    3.1303   -4.3808    1.8467 H   0  0  0  0  0  0  0  0  0  0  0  0
    0.8453   -5.0744    1.3289 H   0  0  0  0  0  0  0  0  0  0  0  0
   -1.1890   -4.7377   -0.0144 H   0  0  0  0  0  0  0  0  0  0  0  0
    2.7728   -1.9079   -0.8516 H   0  0  0  0  0  0  0  0  0  0  0  0
   -0.0099   -1.3354   -3.1987 H   0  0  0  0  0  0  0  0  0  0  0  0
    1.7433   -1.2573   -3.0146 H   0  0  0  0  0  0  0  0  0  0  0  0
   -0.6221    1.0849   -2.9085 H   0  0  0  0  0  0  0  0  0  0  0  0
    1.0681    1.0995   -3.4576 H   0  0  0  0  0  0  0  0  0  0  0  0
   -1.5963   -1.2213   -0.4361 H   0  0  0  0  0  0  0  0  0  0  0  0
   -1.9144   -0.8844   -2.1578 H   0  0  0  0  0  0  0  0  0  0  0  0
   -3.8454   -2.3373   -0.2777 H   0  0  0  0  0  0  0  0  0  0  0  0
   -4.0783   -2.0526   -1.9918 H   0  0  0  0  0  0  0  0  0  0  0  0
   -6.0001    0.6854   -1.1841 H   0  0  0  0  0  0  0  0  0  0  0  0
   -6.0644   -1.0223   -1.5728 H   0  0  0  0  0  0  0  0  0  0  0  0
   -6.4488   -1.5973    0.6854 H   0  0  0  0  0  0  0  0  0  0  0  0
   -6.9291    0.1009    0.8380 H   0  0  0  0  0  0  0  0  0  0  0  0
   -5.1123    0.3424    2.2813 H   0  0  0  0  0  0  0  0  0  0  0  0
   -4.5397   -1.2728    1.8556 H   0  0  0  0  0  0  0  0  0  0  0  0
   -2.8283   -0.0822    0.8415 H   0  0  0  0  0  0  0  0  0  0  0  0
   -3.5647    2.1362    1.5644 H   0  0  0  0  0  0  0  0  0  0  0  0
   -4.8117    2.1931    0.3342 H   0  0  0  0  0  0  0  0  0  0  0  0
   -1.0179    0.9437   -0.2561 H   0  0  0  0  0  0  0  0  0  0  0  0
   -1.0134    2.0849    1.0750 H   0  0  0  0  0  0  0  0  0  0  0  0
  1  2  2  0
  2  3  1  0
  3  4  1  0
  4  5  1  0
  5  6  1  0
  6  7  2  0
  7  8  1  0
  8  9  2  0
  9 10  1  0
  9 11  1  0
 11 12  2  0
 12 13  1  0
 13 14  2  0
 14 15  1  0
 15 16  2  0
 15 17  1  0
 17 18  1  0
 18 19  2  0
 19 20  1  0
 20 21  2  0
 21 22  1  0
 22 23  2  0
 22 24  1  0
 24 25  1  0
 25 26  1  0
 21 27  1  0
 27 28  1  0
 28 29  1  0
 29 30  1  0
 30 31  1  0
 31 32  1  0
 32 33  1  0
 33 34  1  0
 34 35  1  0
 35 36  1  0
 36 37  1  0
 26  1  1  0
 34 30  1  0
 37  2  1  0
 10  6  1  0
 16 11  1  0
 23 18  1  0
  1 38  1  0
  3 39  1  0
  3 40  1  0
  5 41  1  0
  5 42  1  0
  7 43  1  0
  8 44  1  0
 12 45  1  0
 13 46  1  0
 17 47  1  0
 19 48  1  0
 20 49  1  0
 23 50  1  0
 24 51  1  0
 24 52  1  0
 26 53  1  0
 26 54  1  0
 28 55  1  0
 28 56  1  0
 29 57  1  0
 29 58  1  0
 31 59  1  0
 31 60  1  0
 32 61  1  0
 32 62  1  0
 33 63  1  0
 33 64  1  0
 34 65  1  0
 35 66  1  0
 35 67  1  0
 37 68  1  0
 37 69  1  0
M  END
>  <candidate_id>  (108) 
CAND_ec7238a2dd

>  <source_generator>  (108) 
v5_3_model_guided_macrocycle

>  <parent_mol_id>  (108) 
JAK2_522c241c10

>  <canonical_smiles>  (108) 
C1=C2/COCc3ccc(s3)-c3ccnc(n3)Nc3ccc(c(c3)COC/1)OCCN1CCCC1CSC2

>  <inchikey>  (108) 
HZKXHPKRYNNZJL-ZBKNUEDVSA-N

>  <valid_rdkit>  (108) 
True

>  <unique_flag>  (108) 
True

>  <novel_flag>  (108) 
True

>  <mw>  (108) 
536.723

>  <logp>  (108) 
5.5119

>  <tpsa>  (108) 
68.74

>  <hbd>  (108) 
1

>  <hba>  (108) 
9

>  <rotatable_bonds>  (108) 
0

>  <qed>  (108) 
0.3773

>  <sa_score>  (108) 
4.943

>  <murcko_scaffold>  (108) 
C1=C2/COCc3ccc(s3)-c3ccnc(n3)Nc3ccc(c(c3)COC/1)OCCN1CCCC1CSC2

>  <max_ring_size>  (108) 
18

>  <has_macrocycle_12_20>  (108) 
True

>  <has_constrained_ring_8_11>  (108) 
False

>  <passes_basic_filters>  (108) 
True

>  <generation_notes>  (108) 
v5_3_model_guided_anchor_pair=0-15;anchor_scores=0.312,0.079;linker_length=3;target_ring=14;linker_prob=0.414;chemotype=thioether

$$$$
CAND_67bc1f8ccd
     RDKit          3D

 70 75  0  0  0  0  0  0  0  0999 V2000
    0.4065    1.3856    2.0481 C   0  0  0  0  0  0  0  0  0  0  0  0
    0.0071    2.5953    1.5865 C   0  0  0  0  0  0  0  0  0  0  0  0
   -1.2206    2.8932    0.7249 C   0  0  0  0  0  0  0  0  0  0  0  0
   -1.9845    1.7425    0.2480 N   0  0  0  0  0  0  0  0  0  0  0  0
   -3.2932    2.1201   -0.2992 C   0  0  0  0  0  0  0  0  0  0  0  0
   -4.1564    0.8794   -0.6699 C   0  0  0  0  0  0  0  0  0  0  0  0
   -5.5357    1.3240   -1.1796 C   0  0  0  0  0  0  0  0  0  0  0  0
   -5.8356    0.3839   -2.3258 C   0  0  0  0  0  0  0  0  0  0  0  0
   -4.4600    0.1488   -2.9106 C   0  0  0  0  0  0  0  0  0  0  0  0
   -3.5554    0.0399   -1.7519 N   0  0  0  0  0  0  0  0  0  0  0  0
   -3.4166   -1.3814   -1.3424 C   0  0  0  0  0  0  0  0  0  0  0  0
   -2.2826   -1.5863   -0.3313 C   0  0  0  0  0  0  0  0  0  0  0  0
   -2.0855   -2.9825   -0.0343 O   0  0  0  0  0  0  0  0  0  0  0  0
   -0.7425   -3.2746   -0.0352 C   0  0  0  0  0  0  0  0  0  0  0  0
   -0.2681   -4.0005   -1.1321 C   0  0  0  0  0  0  0  0  0  0  0  0
    1.1014   -4.2383   -1.2829 C   0  0  0  0  0  0  0  0  0  0  0  0
    2.0118   -3.7398   -0.3493 C   0  0  0  0  0  0  0  0  0  0  0  0
    1.5089   -3.0680    0.7762 C   0  0  0  0  0  0  0  0  0  0  0  0
    0.1337   -2.8563    0.9742 C   0  0  0  0  0  0  0  0  0  0  0  0
   -0.3115   -2.2250    2.2726 C   0  0  0  0  0  0  0  0  0  0  0  0
    0.3379   -0.9721    2.5365 O   0  0  0  0  0  0  0  0  0  0  0  0
   -0.2654    0.0800    1.7860 C   0  0  0  0  0  0  0  0  0  0  0  0
    3.3874   -3.8258   -0.5897 N   0  0  0  0  0  0  0  0  0  0  0  0
    4.3574   -2.8539   -0.3601 C   0  0  0  0  0  0  0  0  0  0  0  0
    5.6423   -3.2362   -0.3840 N   0  0  0  0  0  0  0  0  0  0  0  0
    6.5650   -2.2826   -0.1372 C   0  0  0  0  0  0  0  0  0  0  0  0
    6.2623   -0.9633    0.0973 C   0  0  0  0  0  0  0  0  0  0  0  0
    4.9244   -0.6629    0.0521 C   0  0  0  0  0  0  0  0  0  0  0  0
    3.9758   -1.5851   -0.1758 N   0  0  0  0  0  0  0  0  0  0  0  0
    4.3911    0.6884    0.1786 C   0  0  0  0  0  0  0  0  0  0  0  0
    3.6590    1.3973   -0.7540 C   0  0  0  0  0  0  0  0  0  0  0  0
    3.2037    2.6482   -0.2526 C   0  0  0  0  0  0  0  0  0  0  0  0
    3.5612    2.8416    1.0673 C   0  0  0  0  0  0  0  0  0  0  0  0
    4.5522    1.5617    1.6394 S   0  0  0  0  0  0  0  0  0  0  0  0
    3.1817    3.9704    1.9732 C   0  0  0  0  0  0  0  0  0  0  0  0
    1.9736    3.6328    2.6589 O   0  0  0  0  0  0  0  0  0  0  0  0
    0.7809    3.8687    1.9105 C   0  0  0  0  0  0  0  0  0  0  0  0
    1.3027    1.3145    2.6602 H   0  0  0  0  0  0  0  0  0  0  0  0
   -1.8754    3.5349    1.3289 H   0  0  0  0  0  0  0  0  0  0  0  0
   -0.9029    3.4796   -0.1465 H   0  0  0  0  0  0  0  0  0  0  0  0
   -1.4645    1.2832   -0.5026 H   0  0  0  0  0  0  0  0  0  0  0  0
   -3.1521    2.7541   -1.1838 H   0  0  0  0  0  0  0  0  0  0  0  0
   -3.8472    2.7066    0.4443 H   0  0  0  0  0  0  0  0  0  0  0  0
   -4.3127    0.2888    0.2427 H   0  0  0  0  0  0  0  0  0  0  0  0
   -5.5117    2.3557   -1.5514 H   0  0  0  0  0  0  0  0  0  0  0  0
   -6.3014    1.2643   -0.3996 H   0  0  0  0  0  0  0  0  0  0  0  0
   -6.2689   -0.5512   -1.9525 H   0  0  0  0  0  0  0  0  0  0  0  0
   -6.5300    0.8214   -3.0489 H   0  0  0  0  0  0  0  0  0  0  0  0
   -4.4321   -0.7167   -3.5812 H   0  0  0  0  0  0  0  0  0  0  0  0
   -4.1549    1.0201   -3.5038 H   0  0  0  0  0  0  0  0  0  0  0  0
   -3.1708   -1.9918   -2.2215 H   0  0  0  0  0  0  0  0  0  0  0  0
   -4.3549   -1.7901   -0.9462 H   0  0  0  0  0  0  0  0  0  0  0  0
   -1.3770   -1.1295   -0.7505 H   0  0  0  0  0  0  0  0  0  0  0  0
   -2.5401   -1.0928    0.6081 H   0  0  0  0  0  0  0  0  0  0  0  0
   -0.9622   -4.3442   -1.8940 H   0  0  0  0  0  0  0  0  0  0  0  0
    1.4544   -4.7583   -2.1689 H   0  0  0  0  0  0  0  0  0  0  0  0
    2.2038   -2.6925    1.5277 H   0  0  0  0  0  0  0  0  0  0  0  0
   -1.3989   -2.1164    2.3434 H   0  0  0  0  0  0  0  0  0  0  0  0
   -0.0270   -2.9046    3.0851 H   0  0  0  0  0  0  0  0  0  0  0  0
   -0.1442   -0.1472    0.7257 H   0  0  0  0  0  0  0  0  0  0  0  0
   -1.3158    0.1399    2.0845 H   0  0  0  0  0  0  0  0  0  0  0  0
    3.7671   -4.6739   -0.9744 H   0  0  0  0  0  0  0  0  0  0  0  0
    7.5952   -2.6274   -0.1408 H   0  0  0  0  0  0  0  0  0  0  0  0
    7.0247   -0.2190    0.2750 H   0  0  0  0  0  0  0  0  0  0  0  0
    3.4307    1.0104   -1.7401 H   0  0  0  0  0  0  0  0  0  0  0  0
    2.5889    3.3396   -0.8148 H   0  0  0  0  0  0  0  0  0  0  0  0
    3.0753    4.9160    1.4288 H   0  0  0  0  0  0  0  0  0  0  0  0
    3.9546    4.1282    2.7336 H   0  0  0  0  0  0  0  0  0  0  0  0
    0.9915    4.4226    0.9877 H   0  0  0  0  0  0  0  0  0  0  0  0
    0.1440    4.5083    2.5323 H   0  0  0  0  0  0  0  0  0  0  0  0
  1  2  2  0
  2  3  1  0
  3  4  1  0
  4  5  1  0
  5  6  1  0
  6  7  1  0
  7  8  1  0
  8  9  1  0
  9 10  1  0
 10 11  1  0
 11 12  1  0
 12 13  1  0
 13 14  1  0
 14 15  2  0
 15 16  1  0
 16 17  2  0
 17 18  1  0
 18 19  2  0
 19 20  1  0
 20 21  1  0
 21 22  1  0
 17 23  1  0
 23 24  1  0
 24 25  2  0
 25 26  1  0
 26 27  2  0
 27 28  1  0
 28 29  2  0
 28 30  1  0
 30 31  2  0
 31 32  1  0
 32 33  2  0
 33 34  1  0
 33 35  1  0
 35 36  1  0
 36 37  1  0
 22  1  1  0
 29 24  1  0
 34 30  1  0
 37  2  1  0
 10  6  1  0
 19 14  1  0
  1 38  1  0
  3 39  1  0
  3 40  1  0
  4 41  1  0
  5 42  1  0
  5 43  1  0
  6 44  1  0
  7 45  1  0
  7 46  1  0
  8 47  1  0
  8 48  1  0
  9 49  1  0
  9 50  1  0
 11 51  1  0
 11 52  1  0
 12 53  1  0
 12 54  1  0
 15 55  1  0
 16 56  1  0
 18 57  1  0
 20 58  1  0
 20 59  1  0
 22 60  1  0
 22 61  1  0
 23 62  1  0
 26 63  1  0
 27 64  1  0
 31 65  1  0
 32 66  1  0
 35 67  1  0
 35 68  1  0
 37 69  1  0
 37 70  1  0
M  END
>  <candidate_id>  (109) 
CAND_67bc1f8ccd

>  <source_generator>  (109) 
v5_3_model_guided_macrocycle

>  <parent_mol_id>  (109) 
JAK2_522c241c10

>  <canonical_smiles>  (109) 
C1=C2\CNCC3CCCN3CCOc3ccc(cc3COC/1)Nc1nccc(n1)-c1ccc(s1)COC2

>  <inchikey>  (109) 
RTPPMXQABSJKCN-DNTJNYDQSA-N

>  <valid_rdkit>  (109) 
True

>  <unique_flag>  (109) 
True

>  <novel_flag>  (109) 
True

>  <mw>  (109) 
519.671

>  <logp>  (109) 
4.3683

>  <tpsa>  (109) 
80.77

>  <hbd>  (109) 
2

>  <hba>  (109) 
9

>  <rotatable_bonds>  (109) 
0

>  <qed>  (109) 
0.4241

>  <sa_score>  (109) 
4.593

>  <murcko_scaffold>  (109) 
C1=C2\CNCC3CCCN3CCOc3ccc(cc3COC/1)Nc1nccc(n1)-c1ccc(s1)COC2

>  <max_ring_size>  (109) 
18

>  <has_macrocycle_12_20>  (109) 
True

>  <has_constrained_ring_8_11>  (109) 
False

>  <passes_basic_filters>  (109) 
True

>  <generation_notes>  (109) 
v5_3_model_guided_anchor_pair=0-15;anchor_scores=0.312,0.079;linker_length=3;target_ring=14;linker_prob=0.414;chemotype=aza

$$$$
CAND_5c64fa89d0
     RDKit          3D

 71 76  0  0  0  0  0  0  0  0999 V2000
    0.1227   -2.2292    1.7069 C   0  0  0  0  0  0  0  0  0  0  0  0
    0.1316   -2.5183    0.3867 C   0  0  0  0  0  0  0  0  0  0  0  0
   -0.7030   -1.7457   -0.6212 C   0  0  0  0  0  0  0  0  0  0  0  0
   -1.9836   -2.4875   -1.0048 C   0  0  0  0  0  0  0  0  0  0  0  0
   -2.7997   -1.7520   -2.0791 C   0  0  0  0  0  0  0  0  0  0  0  0
   -3.9523   -0.8544   -1.5962 C   0  0  0  0  0  0  0  0  0  0  0  0
   -5.0391   -1.6180   -0.8211 C   0  0  0  0  0  0  0  0  0  0  0  0
   -5.3541   -0.7452    0.3832 C   0  0  0  0  0  0  0  0  0  0  0  0
   -4.8178    0.6189   -0.0030 C   0  0  0  0  0  0  0  0  0  0  0  0
   -3.5873    0.2751   -0.7176 N   0  0  0  0  0  0  0  0  0  0  0  0
   -2.9761    1.4014   -1.4539 C   0  0  0  0  0  0  0  0  0  0  0  0
   -3.0743    2.8239   -0.8445 C   0  0  0  0  0  0  0  0  0  0  0  0
   -2.5217    2.9343    0.4731 O   0  0  0  0  0  0  0  0  0  0  0  0
   -1.1707    3.1598    0.4943 C   0  0  0  0  0  0  0  0  0  0  0  0
   -0.6135    4.2968   -0.0911 C   0  0  0  0  0  0  0  0  0  0  0  0
    0.7666    4.5083   -0.0338 C   0  0  0  0  0  0  0  0  0  0  0  0
    1.6114    3.5944    0.6078 C   0  0  0  0  0  0  0  0  0  0  0  0
    1.0298    2.4724    1.2116 C   0  0  0  0  0  0  0  0  0  0  0  0
   -0.3622    2.2590    1.1976 C   0  0  0  0  0  0  0  0  0  0  0  0
   -0.9916    1.1267    1.9747 C   0  0  0  0  0  0  0  0  0  0  0  0
   -0.0678    0.0600    2.1599 O   0  0  0  0  0  0  0  0  0  0  0  0
   -0.7092   -1.1870    2.3787 C   0  0  0  0  0  0  0  0  0  0  0  0
    2.9919    3.8098    0.5765 N   0  0  0  0  0  0  0  0  0  0  0  0
    4.0665    2.9267    0.5924 C   0  0  0  0  0  0  0  0  0  0  0  0
    5.2771    3.4893    0.7548 N   0  0  0  0  0  0  0  0  0  0  0  0
    6.3472    2.6735    0.7148 C   0  0  0  0  0  0  0  0  0  0  0  0
    6.2637    1.3256    0.4837 C   0  0  0  0  0  0  0  0  0  0  0  0
    4.9881    0.8441    0.3108 C   0  0  0  0  0  0  0  0  0  0  0  0
    3.8897    1.6198    0.3675 N   0  0  0  0  0  0  0  0  0  0  0  0
    4.7426   -0.5449   -0.0610 C   0  0  0  0  0  0  0  0  0  0  0  0
    5.0445   -1.1798   -1.2496 C   0  0  0  0  0  0  0  0  0  0  0  0
    4.5941   -2.5309   -1.2713 C   0  0  0  0  0  0  0  0  0  0  0  0
    3.9615   -2.8934   -0.0974 C   0  0  0  0  0  0  0  0  0  0  0  0
    3.9913   -1.6120    1.0443 S   0  0  0  0  0  0  0  0  0  0  0  0
    3.3160   -4.2108    0.2225 C   0  0  0  0  0  0  0  0  0  0  0  0
    2.0040   -4.0173    0.7470 O   0  0  0  0  0  0  0  0  0  0  0  0
    1.0474   -3.5677   -0.2139 C   0  0  0  0  0  0  0  0  0  0  0  0
    0.7860   -2.7724    2.3761 H   0  0  0  0  0  0  0  0  0  0  0  0
   -0.9562   -0.7534   -0.2410 H   0  0  0  0  0  0  0  0  0  0  0  0
   -0.0963   -1.5582   -1.5164 H   0  0  0  0  0  0  0  0  0  0  0  0
   -1.7052   -3.4683   -1.4118 H   0  0  0  0  0  0  0  0  0  0  0  0
   -2.5836   -2.6850   -0.1107 H   0  0  0  0  0  0  0  0  0  0  0  0
   -3.2474   -2.5179   -2.7275 H   0  0  0  0  0  0  0  0  0  0  0  0
   -2.1301   -1.1732   -2.7274 H   0  0  0  0  0  0  0  0  0  0  0  0
   -4.4445   -0.4611   -2.4985 H   0  0  0  0  0  0  0  0  0  0  0  0
   -5.9334   -1.7218   -1.4478 H   0  0  0  0  0  0  0  0  0  0  0  0
   -4.7484   -2.6237   -0.5047 H   0  0  0  0  0  0  0  0  0  0  0  0
   -4.8246   -1.1263    1.2654 H   0  0  0  0  0  0  0  0  0  0  0  0
   -6.4237   -0.7251    0.6122 H   0  0  0  0  0  0  0  0  0  0  0  0
   -5.5348    1.1362   -0.6529 H   0  0  0  0  0  0  0  0  0  0  0  0
   -4.6331    1.2280    0.8867 H   0  0  0  0  0  0  0  0  0  0  0  0
   -1.9165    1.1599   -1.5963 H   0  0  0  0  0  0  0  0  0  0  0  0
   -3.4209    1.4754   -2.4548 H   0  0  0  0  0  0  0  0  0  0  0  0
   -2.6273    3.5423   -1.5421 H   0  0  0  0  0  0  0  0  0  0  0  0
   -4.1274    3.1175   -0.7670 H   0  0  0  0  0  0  0  0  0  0  0  0
   -1.2419    5.0346   -0.5796 H   0  0  0  0  0  0  0  0  0  0  0  0
    1.1826    5.3904   -0.5134 H   0  0  0  0  0  0  0  0  0  0  0  0
    1.6636    1.7566    1.7336 H   0  0  0  0  0  0  0  0  0  0  0  0
   -1.8719    0.7678    1.4353 H   0  0  0  0  0  0  0  0  0  0  0  0
   -1.3066    1.4915    2.9585 H   0  0  0  0  0  0  0  0  0  0  0  0
   -1.7374   -1.2208    1.9997 H   0  0  0  0  0  0  0  0  0  0  0  0
   -0.7519   -1.3751    3.4566 H   0  0  0  0  0  0  0  0  0  0  0  0
    3.3177    4.7628    0.5587 H   0  0  0  0  0  0  0  0  0  0  0  0
    7.3063    3.1598    0.8657 H   0  0  0  0  0  0  0  0  0  0  0  0
    7.1388    0.6944    0.4307 H   0  0  0  0  0  0  0  0  0  0  0  0
    5.5303   -0.6847   -2.0816 H   0  0  0  0  0  0  0  0  0  0  0  0
    4.7028   -3.1946   -2.1206 H   0  0  0  0  0  0  0  0  0  0  0  0
    3.9070   -4.7281    0.9861 H   0  0  0  0  0  0  0  0  0  0  0  0
    3.2685   -4.8637   -0.6568 H   0  0  0  0  0  0  0  0  0  0  0  0
    0.4574   -4.4345   -0.5300 H   0  0  0  0  0  0  0  0  0  0  0  0
    1.5385   -3.1551   -1.1023 H   0  0  0  0  0  0  0  0  0  0  0  0
  1  2  2  0
  2  3  1  0
  3  4  1  0
  4  5  1  0
  5  6  1  0
  6  7  1  0
  7  8  1  0
  8  9  1  0
  9 10  1  0
 10 11  1  0
 11 12  1  0
 12 13  1  0
 13 14  1  0
 14 15  2  0
 15 16  1  0
 16 17  2  0
 17 18  1  0
 18 19  2  0
 19 20  1  0
 20 21  1  0
 21 22  1  0
 17 23  1  0
 23 24  1  0
 24 25  2  0
 25 26  1  0
 26 27  2  0
 27 28  1  0
 28 29  2  0
 28 30  1  0
 30 31  2  0
 31 32  1  0
 32 33  2  0
 33 34  1  0
 33 35  1  0
 35 36  1  0
 36 37  1  0
 22  1  1  0
 29 24  1  0
 34 30  1  0
 37  2  1  0
 10  6  1  0
 19 14  1  0
  1 38  1  0
  3 39  1  0
  3 40  1  0
  4 41  1  0
  4 42  1  0
  5 43  1  0
  5 44  1  0
  6 45  1  0
  7 46  1  0
  7 47  1  0
  8 48  1  0
  8 49  1  0
  9 50  1  0
  9 51  1  0
 11 52  1  0
 11 53  1  0
 12 54  1  0
 12 55  1  0
 15 56  1  0
 16 57  1  0
 18 58  1  0
 20 59  1  0
 20 60  1  0
 22 61  1  0
 22 62  1  0
 23 63  1  0
 26 64  1  0
 27 65  1  0
 31 66  1  0
 32 67  1  0
 35 68  1  0
 35 69  1  0
 37 70  1  0
 37 71  1  0
M  END
>  <candidate_id>  (110) 
CAND_5c64fa89d0

>  <source_generator>  (110) 
v5_3_model_guided_macrocycle

>  <parent_mol_id>  (110) 
JAK2_522c241c10

>  <canonical_smiles>  (110) 
C1=C2\CCCC3CCCN3CCOc3ccc(cc3COC/1)Nc1nccc(n1)-c1ccc(s1)COC2

>  <inchikey>  (110) 
OVLUYPLPKOKAMI-SRZZPIQSSA-N

>  <valid_rdkit>  (110) 
True

>  <unique_flag>  (110) 
True

>  <novel_flag>  (110) 
True

>  <mw>  (110) 
518.683

>  <logp>  (110) 
5.949

>  <tpsa>  (110) 
68.74

>  <hbd>  (110) 
1

>  <hba>  (110) 
8

>  <rotatable_bonds>  (110) 
0

>  <qed>  (110) 
0.369

>  <sa_score>  (110) 
5.062

>  <murcko_scaffold>  (110) 
C1=C2\CCCC3CCCN3CCOc3ccc(cc3COC/1)Nc1nccc(n1)-c1ccc(s1)COC2

>  <max_ring_size>  (110) 
18

>  <has_macrocycle_12_20>  (110) 
True

>  <has_constrained_ring_8_11>  (110) 
False

>  <passes_basic_filters>  (110) 
True

>  <generation_notes>  (110) 
v5_3_model_guided_anchor_pair=0-15;anchor_scores=0.312,0.079;linker_length=3;target_ring=14;linker_prob=0.414;chemotype=alkyl

$$$$
CAND_581788b33e
     RDKit          3D

 71 76  0  0  0  0  0  0  0  0999 V2000
    0.9233    3.0171   -0.3803 C   0  0  0  0  0  0  0  0  0  0  0  0
    0.0802    2.0101   -0.0740 C   0  0  0  0  0  0  0  0  0  0  0  0
   -1.0187    2.0801    0.9683 C   0  0  0  0  0  0  0  0  0  0  0  0
   -2.3149    2.6571    0.3768 C   0  0  0  0  0  0  0  0  0  0  0  0
   -3.5800    2.4186    1.2198 C   0  0  0  0  0  0  0  0  0  0  0  0
   -3.9094    0.9453    1.4795 C   0  0  0  0  0  0  0  0  0  0  0  0
   -5.3317    0.6701    1.9819 C   0  0  0  0  0  0  0  0  0  0  0  0
   -5.6875   -0.7150    1.4163 C   0  0  0  0  0  0  0  0  0  0  0  0
   -4.4612   -1.1559    0.7611 N   0  0  0  0  0  0  0  0  0  0  0  0
   -4.6060   -2.2424   -0.2101 C   0  0  0  0  0  0  0  0  0  0  0  0
   -3.3231   -2.5721   -1.0230 C   0  0  0  0  0  0  0  0  0  0  0  0
   -2.2014   -2.5837   -0.1421 O   0  0  0  0  0  0  0  0  0  0  0  0
   -0.9901   -2.9309   -0.6648 C   0  0  0  0  0  0  0  0  0  0  0  0
   -0.4264   -4.0651   -0.0666 C   0  0  0  0  0  0  0  0  0  0  0  0
    0.9127   -4.4023   -0.2757 C   0  0  0  0  0  0  0  0  0  0  0  0
    1.7308   -3.5880   -1.0572 C   0  0  0  0  0  0  0  0  0  0  0  0
    1.1471   -2.4811   -1.6837 C   0  0  0  0  0  0  0  0  0  0  0  0
   -0.2159   -2.1379   -1.5213 C   0  0  0  0  0  0  0  0  0  0  0  0
   -0.6819   -0.8859   -2.2288 C   0  0  0  0  0  0  0  0  0  0  0  0
   -0.8965    0.2454   -1.3893 O   0  0  0  0  0  0  0  0  0  0  0  0
    0.2892    0.6569   -0.7214 C   0  0  0  0  0  0  0  0  0  0  0  0
    3.1079   -3.8177   -1.0899 N   0  0  0  0  0  0  0  0  0  0  0  0
    4.1731   -2.9207   -1.0332 C   0  0  0  0  0  0  0  0  0  0  0  0
    5.3951   -3.4633   -1.1595 N   0  0  0  0  0  0  0  0  0  0  0  0
    6.4510   -2.6371   -1.0463 C   0  0  0  0  0  0  0  0  0  0  0  0
    6.3397   -1.2955   -0.7880 C   0  0  0  0  0  0  0  0  0  0  0  0
    5.0533   -0.8283   -0.6476 C   0  0  0  0  0  0  0  0  0  0  0  0
    3.9682   -1.6164   -0.7905 N   0  0  0  0  0  0  0  0  0  0  0  0
    4.7863    0.5796   -0.3356 C   0  0  0  0  0  0  0  0  0  0  0  0
    5.3129    1.7169   -0.9202 C   0  0  0  0  0  0  0  0  0  0  0  0
    4.8004    2.9172   -0.3452 C   0  0  0  0  0  0  0  0  0  0  0  0
    3.8932    2.6727    0.6672 C   0  0  0  0  0  0  0  0  0  0  0  0
    3.7271    0.9902    0.9523 S   0  0  0  0  0  0  0  0  0  0  0  0
    3.0968    3.6651    1.4678 C   0  0  0  0  0  0  0  0  0  0  0  0
    2.4805    4.5825    0.5532 O   0  0  0  0  0  0  0  0  0  0  0  0
    1.0892    4.3297    0.3137 C   0  0  0  0  0  0  0  0  0  0  0  0
   -3.8213    0.0495    0.2548 C   0  0  0  0  0  0  0  0  0  0  0  0
    1.6502    2.8569   -1.1767 H   0  0  0  0  0  0  0  0  0  0  0  0
   -1.1775    1.0754    1.3738 H   0  0  0  0  0  0  0  0  0  0  0  0
   -0.7085    2.6865    1.8265 H   0  0  0  0  0  0  0  0  0  0  0  0
   -2.4860    2.2618   -0.6317 H   0  0  0  0  0  0  0  0  0  0  0  0
   -2.1893    3.7405    0.2492 H   0  0  0  0  0  0  0  0  0  0  0  0
   -4.4205    2.8930    0.6974 H   0  0  0  0  0  0  0  0  0  0  0  0
   -3.4823    2.9384    2.1807 H   0  0  0  0  0  0  0  0  0  0  0  0
   -3.2112    0.5705    2.2424 H   0  0  0  0  0  0  0  0  0  0  0  0
   -6.0432    1.4177    1.6136 H   0  0  0  0  0  0  0  0  0  0  0  0
   -5.3641    0.6792    3.0766 H   0  0  0  0  0  0  0  0  0  0  0  0
   -5.9868   -1.4051    2.2112 H   0  0  0  0  0  0  0  0  0  0  0  0
   -6.5190   -0.6174    0.7079 H   0  0  0  0  0  0  0  0  0  0  0  0
   -4.8870   -3.1437    0.3483 H   0  0  0  0  0  0  0  0  0  0  0  0
   -5.4169   -2.0340   -0.9189 H   0  0  0  0  0  0  0  0  0  0  0  0
   -3.2094   -1.8129   -1.7973 H   0  0  0  0  0  0  0  0  0  0  0  0
   -3.4354   -3.5516   -1.5026 H   0  0  0  0  0  0  0  0  0  0  0  0
   -1.0226   -4.6549    0.6262 H   0  0  0  0  0  0  0  0  0  0  0  0
    1.3276   -5.2576    0.2504 H   0  0  0  0  0  0  0  0  0  0  0  0
    1.7835   -1.8411   -2.2943 H   0  0  0  0  0  0  0  0  0  0  0  0
   -1.6060   -1.0891   -2.7743 H   0  0  0  0  0  0  0  0  0  0  0  0
    0.0283   -0.5991   -3.0162 H   0  0  0  0  0  0  0  0  0  0  0  0
    1.1227    0.6903   -1.4340 H   0  0  0  0  0  0  0  0  0  0  0  0
    0.5413   -0.0654    0.0638 H   0  0  0  0  0  0  0  0  0  0  0  0
    3.4359   -4.7688   -1.0335 H   0  0  0  0  0  0  0  0  0  0  0  0
    7.4226   -3.1084   -1.1631 H   0  0  0  0  0  0  0  0  0  0  0  0
    7.2086   -0.6621   -0.6794 H   0  0  0  0  0  0  0  0  0  0  0  0
    6.0140    1.6953   -1.7457 H   0  0  0  0  0  0  0  0  0  0  0  0
    5.0548    3.9170   -0.6780 H   0  0  0  0  0  0  0  0  0  0  0  0
    2.3610    3.2012    2.1348 H   0  0  0  0  0  0  0  0  0  0  0  0
    3.7878    4.2445    2.0901 H   0  0  0  0  0  0  0  0  0  0  0  0
    0.7290    5.1274   -0.3437 H   0  0  0  0  0  0  0  0  0  0  0  0
    0.5427    4.4064    1.2576 H   0  0  0  0  0  0  0  0  0  0  0  0
   -2.7824   -0.1261   -0.0073 H   0  0  0  0  0  0  0  0  0  0  0  0
   -4.3541    0.4709   -0.6065 H   0  0  0  0  0  0  0  0  0  0  0  0
  1  2  2  0
  2  3  1  0
  3  4  1  0
  4  5  1  0
  5  6  1  0
  6  7  1  0
  7  8  1  0
  8  9  1  0
  9 10  1  0
 10 11  1  0
 11 12  1  0
 12 13  1  0
 13 14  2  0
 14 15  1  0
 15 16  2  0
 16 17  1  0
 17 18  2  0
 18 19  1  0
 19 20  1  0
 20 21  1  0
 16 22  1  0
 22 23  1  0
 23 24  1  0
 24 25  2  0
 25 26  1  0
 26 27  2  0
 27 28  1  0
 27 29  1  0
 29 30  2  0
 30 31  1  0
 31 32  2  0
 32 33  1  0
 32 34  1  0
 34 35  1  0
 35 36  1  0
  9 37  1  0
 36  1  1  0
 21  2  1  0
 28 23  2  0
 33 29  1  0
 37  6  1  0
 18 13  1  0
  1 38  1  0
  3 39  1  0
  3 40  1  0
  4 41  1  0
  4 42  1  0
  5 43  1  0
  5 44  1  0
  6 45  1  0
  7 46  1  0
  7 47  1  0
  8 48  1  0
  8 49  1  0
 10 50  1  0
 10 51  1  0
 11 52  1  0
 11 53  1  0
 14 54  1  0
 15 55  1  0
 17 56  1  0
 19 57  1  0
 19 58  1  0
 21 59  1  0
 21 60  1  0
 22 61  1  0
 25 62  1  0
 26 63  1  0
 30 64  1  0
 31 65  1  0
 34 66  1  0
 34 67  1  0
 36 68  1  0
 36 69  1  0
 37 70  1  0
 37 71  1  0
M  END
>  <candidate_id>  (111) 
CAND_581788b33e

>  <source_generator>  (111) 
v5_3_model_guided_macrocycle

>  <parent_mol_id>  (111) 
JAK2_522c241c10

>  <canonical_smiles>  (111) 
C1=C2\CCCC3CCN(CCOc4ccc(cc4COC2)Nc2nccc(n2)-c2ccc(s2)COC/1)C3

>  <inchikey>  (111) 
NACCYHOXPWKCRJ-LSHDLFTRSA-N

>  <valid_rdkit>  (111) 
True

>  <unique_flag>  (111) 
True

>  <novel_flag>  (111) 
True

>  <mw>  (111) 
518.683

>  <logp>  (111) 
5.8065

>  <tpsa>  (111) 
68.74

>  <hbd>  (111) 
1

>  <hba>  (111) 
8

>  <rotatable_bonds>  (111) 
0

>  <qed>  (111) 
0.377

>  <sa_score>  (111) 
5.24

>  <murcko_scaffold>  (111) 
C1=C2\CCCC3CCN(CCOc4ccc(cc4COC2)Nc2nccc(n2)-c2ccc(s2)COC/1)C3

>  <max_ring_size>  (111) 
18

>  <has_macrocycle_12_20>  (111) 
True

>  <has_constrained_ring_8_11>  (111) 
False

>  <passes_basic_filters>  (111) 
True

>  <generation_notes>  (111) 
v5_3_model_guided_anchor_pair=1-16;anchor_scores=0.312,0.079;linker_length=3;target_ring=14;linker_prob=0.414;chemotype=alkyl

$$$$
CAND_d32750a6b3
     RDKit          3D

 69 74  0  0  0  0  0  0  0  0999 V2000
    2.1210    1.0825    1.1247 C   0  0  0  0  0  0  0  0  0  0  0  0
    2.9421    0.7020    0.1185 C   0  0  0  0  0  0  0  0  0  0  0  0
    2.5896    0.9745   -1.3383 C   0  0  0  0  0  0  0  0  0  0  0  0
    1.1884    1.2168   -1.4738 O   0  0  0  0  0  0  0  0  0  0  0  0
    0.7016    0.9177   -2.7801 C   0  0  0  0  0  0  0  0  0  0  0  0
   -0.7668    1.2550   -2.8718 C   0  0  0  0  0  0  0  0  0  0  0  0
   -1.1985    2.5508   -2.5255 C   0  0  0  0  0  0  0  0  0  0  0  0
   -2.5243    2.9691   -2.7093 C   0  0  0  0  0  0  0  0  0  0  0  0
   -3.4315    2.0564   -3.2570 C   0  0  0  0  0  0  0  0  0  0  0  0
   -3.0369    0.7526   -3.5657 C   0  0  0  0  0  0  0  0  0  0  0  0
   -1.7222    0.3416   -3.3327 C   0  0  0  0  0  0  0  0  0  0  0  0
   -1.3560   -0.9530   -3.6039 O   0  0  0  0  0  0  0  0  0  0  0  0
   -1.9883   -1.8986   -2.7123 C   0  0  0  0  0  0  0  0  0  0  0  0
   -1.1786   -2.0873   -1.4100 C   0  0  0  0  0  0  0  0  0  0  0  0
   -0.2797   -3.2677   -1.3598 N   0  0  0  0  0  0  0  0  0  0  0  0
    0.6619   -3.3464   -2.4927 C   0  0  0  0  0  0  0  0  0  0  0  0
    2.0530   -3.0205   -1.9610 C   0  0  0  0  0  0  0  0  0  0  0  0
    1.7917   -2.4205   -0.5871 C   0  0  0  0  0  0  0  0  0  0  0  0
    2.9631   -2.4696    0.3895 C   0  0  0  0  0  0  0  0  0  0  0  0
    4.4573   -1.6383   -0.2768 S   0  0  0  0  0  0  0  0  0  0  0  0
    4.2839    0.0595    0.3596 C   0  0  0  0  0  0  0  0  0  0  0  0
    0.5661   -3.2098   -0.1445 C   0  0  0  0  0  0  0  0  0  0  0  0
   -2.9833    4.2250   -2.3004 N   0  0  0  0  0  0  0  0  0  0  0  0
   -2.5944    5.0294   -1.2340 C   0  0  0  0  0  0  0  0  0  0  0  0
   -3.1439    6.2535   -1.1809 N   0  0  0  0  0  0  0  0  0  0  0  0
   -2.8199    7.0266   -0.1266 C   0  0  0  0  0  0  0  0  0  0  0  0
   -1.9920    6.6210    0.8893 C   0  0  0  0  0  0  0  0  0  0  0  0
   -1.5020    5.3433    0.7655 C   0  0  0  0  0  0  0  0  0  0  0  0
   -1.7745    4.5557   -0.2904 N   0  0  0  0  0  0  0  0  0  0  0  0
   -0.6351    4.7394    1.7774 C   0  0  0  0  0  0  0  0  0  0  0  0
    0.4966    5.2496    2.3844 C   0  0  0  0  0  0  0  0  0  0  0  0
    1.0993    4.3195    3.2836 C   0  0  0  0  0  0  0  0  0  0  0  0
    0.4073    3.1259    3.3474 C   0  0  0  0  0  0  0  0  0  0  0  0
   -1.0061    3.1762    2.3821 S   0  0  0  0  0  0  0  0  0  0  0  0
    0.7464    1.8919    4.1273 C   0  0  0  0  0  0  0  0  0  0  0  0
    1.0573    0.8189    3.2338 O   0  0  0  0  0  0  0  0  0  0  0  0
    2.3307    0.9351    2.6011 C   0  0  0  0  0  0  0  0  0  0  0  0
    1.1876    1.5782    0.8582 H   0  0  0  0  0  0  0  0  0  0  0  0
    2.8777    0.1237   -1.9633 H   0  0  0  0  0  0  0  0  0  0  0  0
    3.1354    1.8563   -1.6917 H   0  0  0  0  0  0  0  0  0  0  0  0
    1.2478    1.5118   -3.5229 H   0  0  0  0  0  0  0  0  0  0  0  0
    0.8797   -0.1406   -2.9934 H   0  0  0  0  0  0  0  0  0  0  0  0
   -0.4685    3.2481   -2.1171 H   0  0  0  0  0  0  0  0  0  0  0  0
   -4.4684    2.3420   -3.4127 H   0  0  0  0  0  0  0  0  0  0  0  0
   -3.7631    0.0591   -3.9796 H   0  0  0  0  0  0  0  0  0  0  0  0
   -3.0154   -1.6007   -2.4666 H   0  0  0  0  0  0  0  0  0  0  0  0
   -2.0771   -2.8472   -3.2545 H   0  0  0  0  0  0  0  0  0  0  0  0
   -1.9091   -2.2327   -0.6037 H   0  0  0  0  0  0  0  0  0  0  0  0
   -0.6352   -1.1667   -1.1786 H   0  0  0  0  0  0  0  0  0  0  0  0
    0.6526   -4.3658   -2.8956 H   0  0  0  0  0  0  0  0  0  0  0  0
    0.4150   -2.6843   -3.3260 H   0  0  0  0  0  0  0  0  0  0  0  0
    2.6459   -3.9399   -1.8803 H   0  0  0  0  0  0  0  0  0  0  0  0
    2.5814   -2.3284   -2.6238 H   0  0  0  0  0  0  0  0  0  0  0  0
    1.4855   -1.3811   -0.7128 H   0  0  0  0  0  0  0  0  0  0  0  0
    3.2433   -3.5130    0.5731 H   0  0  0  0  0  0  0  0  0  0  0  0
    2.6939   -2.0418    1.3600 H   0  0  0  0  0  0  0  0  0  0  0  0
    4.5538    0.0382    1.4190 H   0  0  0  0  0  0  0  0  0  0  0  0
    5.0549    0.6685   -0.1268 H   0  0  0  0  0  0  0  0  0  0  0  0
    0.0574   -2.7560    0.7136 H   0  0  0  0  0  0  0  0  0  0  0  0
    0.8415   -4.2324    0.1428 H   0  0  0  0  0  0  0  0  0  0  0  0
   -3.7557    4.6358   -2.7994 H   0  0  0  0  0  0  0  0  0  0  0  0
   -3.2729    8.0138   -0.1212 H   0  0  0  0  0  0  0  0  0  0  0  0
   -1.7682    7.2562    1.7339 H   0  0  0  0  0  0  0  0  0  0  0  0
    0.9027    6.2290    2.1633 H   0  0  0  0  0  0  0  0  0  0  0  0
    2.0136    4.5100    3.8325 H   0  0  0  0  0  0  0  0  0  0  0  0
    1.5788    2.0595    4.8208 H   0  0  0  0  0  0  0  0  0  0  0  0
   -0.1165    1.5826    4.7276 H   0  0  0  0  0  0  0  0  0  0  0  0
    2.8759    0.0165    2.8338 H   0  0  0  0  0  0  0  0  0  0  0  0
    2.9067    1.7834    2.9871 H   0  0  0  0  0  0  0  0  0  0  0  0
  1  2  2  0
  2  3  1  0
  3  4  1  0
  4  5  1  0
  5  6  1  0
  6  7  1  0
  7  8  2  0
  8  9  1  0
  9 10  2  0
 10 11  1  0
 11 12  1  0
 12 13  1  0
 13 14  1  0
 14 15  1  0
 15 16  1  0
 16 17  1  0
 17 18  1  0
 18 19  1  0
 19 20  1  0
 20 21  1  0
 18 22  1  0
  8 23  1  0
 23 24  1  0
 24 25  1  0
 25 26  2  0
 26 27  1  0
 27 28  2  0
 28 29  1  0
 28 30  1  0
 30 31  2  0
 31 32  1  0
 32 33  2  0
 33 34  1  0
 33 35  1  0
 35 36  1  0
 36 37  1  0
 37  1  1  0
 21  2  1  0
 29 24  2  0
 34 30  1  0
 11  6  2  0
 22 15  1  0
  1 38  1  0
  3 39  1  0
  3 40  1  0
  5 41  1  0
  5 42  1  0
  7 43  1  0
  9 44  1  0
 10 45  1  0
 13 46  1  0
 13 47  1  0
 14 48  1  0
 14 49  1  0
 16 50  1  0
 16 51  1  0
 17 52  1  0
 17 53  1  0
 18 54  1  0
 19 55  1  0
 19 56  1  0
 21 57  1  0
 21 58  1  0
 22 59  1  0
 22 60  1  0
 23 61  1  0
 26 62  1  0
 27 63  1  0
 31 64  1  0
 32 65  1  0
 35 66  1  0
 35 67  1  0
 37 68  1  0
 37 69  1  0
M  END
>  <candidate_id>  (112) 
CAND_d32750a6b3

>  <source_generator>  (112) 
v5_3_model_guided_macrocycle

>  <parent_mol_id>  (112) 
JAK2_522c241c10

>  <canonical_smiles>  (112) 
C1=C2/COCc3cc(ccc3OCCN3CCC(CSC2)C3)Nc2nccc(n2)-c2ccc(s2)COC/1

>  <inchikey>  (112) 
VKQSSSKBPLFRGH-YXSASFKJSA-N

>  <valid_rdkit>  (112) 
True

>  <unique_flag>  (112) 
True

>  <novel_flag>  (112) 
True

>  <mw>  (112) 
536.723

>  <logp>  (112) 
5.3694

>  <tpsa>  (112) 
68.74

>  <hbd>  (112) 
1

>  <hba>  (112) 
9

>  <rotatable_bonds>  (112) 
0

>  <qed>  (112) 
0.3849

>  <sa_score>  (112) 
5.122

>  <murcko_scaffold>  (112) 
C1=C2/COCc3cc(ccc3OCCN3CCC(CSC2)C3)Nc2nccc(n2)-c2ccc(s2)COC/1

>  <max_ring_size>  (112) 
18

>  <has_macrocycle_12_20>  (112) 
True

>  <has_constrained_ring_8_11>  (112) 
False

>  <passes_basic_filters>  (112) 
True

>  <generation_notes>  (112) 
v5_3_model_guided_anchor_pair=1-16;anchor_scores=0.312,0.079;linker_length=3;target_ring=14;linker_prob=0.414;chemotype=thioether

$$$$
CAND_69ce89568d
     RDKit          3D

 69 74  0  0  0  0  0  0  0  0999 V2000
    0.3776    3.0969   -1.0472 C   0  0  0  0  0  0  0  0  0  0  0  0
   -0.5814    2.3890   -0.4144 C   0  0  0  0  0  0  0  0  0  0  0  0
   -1.0514    1.0379   -0.9098 C   0  0  0  0  0  0  0  0  0  0  0  0
   -0.2050    0.4800   -1.9107 O   0  0  0  0  0  0  0  0  0  0  0  0
   -0.7018   -0.7865   -2.3503 C   0  0  0  0  0  0  0  0  0  0  0  0
   -0.3013   -1.9159   -1.4277 C   0  0  0  0  0  0  0  0  0  0  0  0
    1.0701   -2.2395   -1.3306 C   0  0  0  0  0  0  0  0  0  0  0  0
    1.5228   -3.3338   -0.5886 C   0  0  0  0  0  0  0  0  0  0  0  0
    0.5655   -4.0973    0.0848 C   0  0  0  0  0  0  0  0  0  0  0  0
   -0.7939   -3.7631    0.0434 C   0  0  0  0  0  0  0  0  0  0  0  0
   -1.2383   -2.6578   -0.6887 C   0  0  0  0  0  0  0  0  0  0  0  0
   -2.5451   -2.2339   -0.7312 O   0  0  0  0  0  0  0  0  0  0  0  0
   -3.4558   -2.8516    0.1875 C   0  0  0  0  0  0  0  0  0  0  0  0
   -4.8283   -2.1380    0.1984 C   0  0  0  0  0  0  0  0  0  0  0  0
   -4.9915   -0.9214    1.0035 N   0  0  0  0  0  0  0  0  0  0  0  0
   -4.7879   -1.0616    2.4430 C   0  0  0  0  0  0  0  0  0  0  0  0
   -4.4863    0.3585    2.8969 C   0  0  0  0  0  0  0  0  0  0  0  0
   -3.6080    0.8682    1.7644 C   0  0  0  0  0  0  0  0  0  0  0  0
   -3.4841    2.3891    1.7117 C   0  0  0  0  0  0  0  0  0  0  0  0
   -2.6928    2.8086    0.6001 O   0  0  0  0  0  0  0  0  0  0  0  0
   -1.2847    2.8028    0.8546 C   0  0  0  0  0  0  0  0  0  0  0  0
   -4.2583    0.2524    0.5241 C   0  0  0  0  0  0  0  0  0  0  0  0
    2.8738   -3.6553   -0.4362 N   0  0  0  0  0  0  0  0  0  0  0  0
    4.0285   -2.8821   -0.5026 C   0  0  0  0  0  0  0  0  0  0  0  0
    5.1860   -3.5558   -0.4024 N   0  0  0  0  0  0  0  0  0  0  0  0
    6.3194   -2.8305   -0.3936 C   0  0  0  0  0  0  0  0  0  0  0  0
    6.3455   -1.4606   -0.4542 C   0  0  0  0  0  0  0  0  0  0  0  0
    5.1156   -0.8516   -0.5448 C   0  0  0  0  0  0  0  0  0  0  0  0
    3.9635   -1.5494   -0.5804 N   0  0  0  0  0  0  0  0  0  0  0  0
    4.9697    0.6100   -0.5417 C   0  0  0  0  0  0  0  0  0  0  0  0
    5.7354    1.5672    0.1020 C   0  0  0  0  0  0  0  0  0  0  0  0
    5.2327    2.8904   -0.0794 C   0  0  0  0  0  0  0  0  0  0  0  0
    4.1035    2.9167   -0.8711 C   0  0  0  0  0  0  0  0  0  0  0  0
    3.6970    1.3499   -1.4243 S   0  0  0  0  0  0  0  0  0  0  0  0
    3.2601    4.0901   -1.2574 C   0  0  0  0  0  0  0  0  0  0  0  0
    2.2985    4.2673   -0.2177 O   0  0  0  0  0  0  0  0  0  0  0  0
    0.9630    4.4280   -0.6897 C   0  0  0  0  0  0  0  0  0  0  0  0
    0.7961    2.6636   -1.9543 H   0  0  0  0  0  0  0  0  0  0  0  0
   -1.0915    0.3470   -0.0612 H   0  0  0  0  0  0  0  0  0  0  0  0
   -2.0517    1.1640   -1.3370 H   0  0  0  0  0  0  0  0  0  0  0  0
   -1.7834   -0.7409   -2.5240 H   0  0  0  0  0  0  0  0  0  0  0  0
   -0.2553   -0.9810   -3.3331 H   0  0  0  0  0  0  0  0  0  0  0  0
    1.7845   -1.6233   -1.8750 H   0  0  0  0  0  0  0  0  0  0  0  0
    0.8741   -4.9510    0.6836 H   0  0  0  0  0  0  0  0  0  0  0  0
   -1.4759   -4.3930    0.6043 H   0  0  0  0  0  0  0  0  0  0  0  0
   -3.6253   -3.8830   -0.1467 H   0  0  0  0  0  0  0  0  0  0  0  0
   -3.0349   -2.8765    1.1971 H   0  0  0  0  0  0  0  0  0  0  0  0
   -5.5699   -2.8588    0.5658 H   0  0  0  0  0  0  0  0  0  0  0  0
   -5.1174   -1.9080   -0.8349 H   0  0  0  0  0  0  0  0  0  0  0  0
   -3.9352   -1.7005    2.6925 H   0  0  0  0  0  0  0  0  0  0  0  0
   -5.6767   -1.4628    2.9392 H   0  0  0  0  0  0  0  0  0  0  0  0
   -5.4108    0.9438    2.9770 H   0  0  0  0  0  0  0  0  0  0  0  0
   -3.9743    0.3846    3.8635 H   0  0  0  0  0  0  0  0  0  0  0  0
   -2.6096    0.4241    1.8751 H   0  0  0  0  0  0  0  0  0  0  0  0
   -4.4758    2.8367    1.5813 H   0  0  0  0  0  0  0  0  0  0  0  0
   -3.0727    2.7910    2.6455 H   0  0  0  0  0  0  0  0  0  0  0  0
   -1.0077    3.8013    1.1990 H   0  0  0  0  0  0  0  0  0  0  0  0
   -1.0228    2.0965    1.6517 H   0  0  0  0  0  0  0  0  0  0  0  0
   -4.9738    0.9435    0.0643 H   0  0  0  0  0  0  0  0  0  0  0  0
   -3.5115    0.0088   -0.2296 H   0  0  0  0  0  0  0  0  0  0  0  0
    3.1084   -4.6092   -0.2115 H   0  0  0  0  0  0  0  0  0  0  0  0
    7.2372   -3.4070   -0.3231 H   0  0  0  0  0  0  0  0  0  0  0  0
    7.2744   -0.9096   -0.4313 H   0  0  0  0  0  0  0  0  0  0  0  0
    6.5937    1.3327    0.7190 H   0  0  0  0  0  0  0  0  0  0  0  0
    5.6603    3.7764    0.3744 H   0  0  0  0  0  0  0  0  0  0  0  0
    2.8037    3.9505   -2.2446 H   0  0  0  0  0  0  0  0  0  0  0  0
    3.8735    4.9965   -1.3045 H   0  0  0  0  0  0  0  0  0  0  0  0
    0.4008    4.9189    0.1076 H   0  0  0  0  0  0  0  0  0  0  0  0
    0.9370    5.1073   -1.5500 H   0  0  0  0  0  0  0  0  0  0  0  0
  1  2  2  0
  2  3  1  0
  3  4  1  0
  4  5  1  0
  5  6  1  0
  6  7  1  0
  7  8  2  0
  8  9  1  0
  9 10  2  0
 10 11  1  0
 11 12  1  0
 12 13  1  0
 13 14  1  0
 14 15  1  0
 15 16  1  0
 16 17  1  0
 17 18  1  0
 18 19  1  0
 19 20  1  0
 20 21  1  0
 18 22  1  0
  8 23  1  0
 23 24  1  0
 24 25  1  0
 25 26  2  0
 26 27  1  0
 27 28  2  0
 28 29  1  0
 28 30  1  0
 30 31  2  0
 31 32  1  0
 32 33  2  0
 33 34  1  0
 33 35  1  0
 35 36  1  0
 36 37  1  0
 37  1  1  0
 21  2  1  0
 29 24  2  0
 34 30  1  0
 11  6  2  0
 22 15  1  0
  1 38  1  0
  3 39  1  0
  3 40  1  0
  5 41  1  0
  5 42  1  0
  7 43  1  0
  9 44  1  0
 10 45  1  0
 13 46  1  0
 13 47  1  0
 14 48  1  0
 14 49  1  0
 16 50  1  0
 16 51  1  0
 17 52  1  0
 17 53  1  0
 18 54  1  0
 19 55  1  0
 19 56  1  0
 21 57  1  0
 21 58  1  0
 22 59  1  0
 22 60  1  0
 23 61  1  0
 26 62  1  0
 27 63  1  0
 31 64  1  0
 32 65  1  0
 35 66  1  0
 35 67  1  0
 37 68  1  0
 37 69  1  0
M  END
>  <candidate_id>  (113) 
CAND_69ce89568d

>  <source_generator>  (113) 
v5_3_model_guided_macrocycle

>  <parent_mol_id>  (113) 
JAK2_522c241c10

>  <canonical_smiles>  (113) 
C1=C2/COCc3cc(ccc3OCCN3CCC(COC2)C3)Nc2nccc(n2)-c2ccc(s2)COC/1

>  <inchikey>  (113) 
WQNUTQLWRXKRJU-QPSGOUHRSA-N

>  <valid_rdkit>  (113) 
True

>  <unique_flag>  (113) 
True

>  <novel_flag>  (113) 
True

>  <mw>  (113) 
520.655

>  <logp>  (113) 
4.6528

>  <tpsa>  (113) 
77.97

>  <hbd>  (113) 
1

>  <hba>  (113) 
9

>  <rotatable_bonds>  (113) 
0

>  <qed>  (113) 
0.4294

>  <sa_score>  (113) 
4.848

>  <murcko_scaffold>  (113) 
C1=C2/COCc3cc(ccc3OCCN3CCC(COC2)C3)Nc2nccc(n2)-c2ccc(s2)COC/1

>  <max_ring_size>  (113) 
18

>  <has_macrocycle_12_20>  (113) 
True

>  <has_constrained_ring_8_11>  (113) 
False

>  <passes_basic_filters>  (113) 
True

>  <generation_notes>  (113) 
v5_3_model_guided_anchor_pair=1-16;anchor_scores=0.312,0.079;linker_length=3;target_ring=14;linker_prob=0.414;chemotype=oxa

$$$$
CAND_2aa8e00931
     RDKit          3D

 70 75  0  0  0  0  0  0  0  0999 V2000
    0.3671    3.6508    0.6219 C   0  0  0  0  0  0  0  0  0  0  0  0
   -0.4425    2.6113    0.3244 C   0  0  0  0  0  0  0  0  0  0  0  0
   -1.0907    2.3802   -1.0220 C   0  0  0  0  0  0  0  0  0  0  0  0
   -2.5210    2.7010   -1.0044 N   0  0  0  0  0  0  0  0  0  0  0  0
   -3.3086    1.7478   -1.7954 C   0  0  0  0  0  0  0  0  0  0  0  0
   -3.5626    0.4244   -1.0665 C   0  0  0  0  0  0  0  0  0  0  0  0
   -4.4765    0.5275    0.1466 C   0  0  0  0  0  0  0  0  0  0  0  0
   -4.8983   -0.9173    0.3696 C   0  0  0  0  0  0  0  0  0  0  0  0
   -4.8956   -1.5394   -0.9591 N   0  0  0  0  0  0  0  0  0  0  0  0
   -4.3327   -2.8981   -0.9815 C   0  0  0  0  0  0  0  0  0  0  0  0
   -2.8061   -3.0936   -0.8292 C   0  0  0  0  0  0  0  0  0  0  0  0
   -2.4018   -3.0029    0.5476 O   0  0  0  0  0  0  0  0  0  0  0  0
   -1.0411   -3.1421    0.6719 C   0  0  0  0  0  0  0  0  0  0  0  0
   -0.4235   -4.3553    0.3567 C   0  0  0  0  0  0  0  0  0  0  0  0
    0.9649   -4.4918    0.4650 C   0  0  0  0  0  0  0  0  0  0  0  0
    1.7638   -3.4278    0.8986 C   0  0  0  0  0  0  0  0  0  0  0  0
    1.1195   -2.2348    1.2453 C   0  0  0  0  0  0  0  0  0  0  0  0
   -0.2795   -2.0819    1.1681 C   0  0  0  0  0  0  0  0  0  0  0  0
   -0.8810   -0.7875    1.6411 C   0  0  0  0  0  0  0  0  0  0  0  0
   -0.3898    0.2755    0.8281 O   0  0  0  0  0  0  0  0  0  0  0  0
   -0.7204    1.5500    1.3660 C   0  0  0  0  0  0  0  0  0  0  0  0
    3.1545   -3.5760    0.9119 N   0  0  0  0  0  0  0  0  0  0  0  0
    4.1880   -2.6429    0.9008 C   0  0  0  0  0  0  0  0  0  0  0  0
    5.4258   -3.1349    1.0673 N   0  0  0  0  0  0  0  0  0  0  0  0
    6.4443   -2.2550    1.0363 C   0  0  0  0  0  0  0  0  0  0  0  0
    6.2818   -0.9083    0.8295 C   0  0  0  0  0  0  0  0  0  0  0  0
    4.9836   -0.4945    0.6442 C   0  0  0  0  0  0  0  0  0  0  0  0
    3.9422   -1.3454    0.6904 N   0  0  0  0  0  0  0  0  0  0  0  0
    4.6426    0.9097    0.3821 C   0  0  0  0  0  0  0  0  0  0  0  0
    5.2291    2.0633    0.8723 C   0  0  0  0  0  0  0  0  0  0  0  0
    4.6233    3.2495    0.3617 C   0  0  0  0  0  0  0  0  0  0  0  0
    3.5921    2.9785   -0.5145 C   0  0  0  0  0  0  0  0  0  0  0  0
    3.3604    1.2943   -0.6973 S   0  0  0  0  0  0  0  0  0  0  0  0
    2.7373    3.9401   -1.2793 C   0  0  0  0  0  0  0  0  0  0  0  0
    2.1842    4.8701   -0.3463 O   0  0  0  0  0  0  0  0  0  0  0  0
    0.7628    4.7987   -0.2541 C   0  0  0  0  0  0  0  0  0  0  0  0
   -4.3010   -0.6005   -1.9183 C   0  0  0  0  0  0  0  0  0  0  0  0
    0.8065    3.7012    1.6174 H   0  0  0  0  0  0  0  0  0  0  0  0
   -0.8969    1.3461   -1.3308 H   0  0  0  0  0  0  0  0  0  0  0  0
   -0.6237    2.9874   -1.8029 H   0  0  0  0  0  0  0  0  0  0  0  0
   -2.8675    2.7205   -0.0491 H   0  0  0  0  0  0  0  0  0  0  0  0
   -2.8252    1.5686   -2.7639 H   0  0  0  0  0  0  0  0  0  0  0  0
   -4.2698    2.2241   -2.0233 H   0  0  0  0  0  0  0  0  0  0  0  0
   -2.6086   -0.0173   -0.7561 H   0  0  0  0  0  0  0  0  0  0  0  0
   -5.3533    1.1483   -0.0759 H   0  0  0  0  0  0  0  0  0  0  0  0
   -3.9755    0.9447    1.0240 H   0  0  0  0  0  0  0  0  0  0  0  0
   -4.2006   -1.3953    1.0624 H   0  0  0  0  0  0  0  0  0  0  0  0
   -5.8942   -0.9716    0.8211 H   0  0  0  0  0  0  0  0  0  0  0  0
   -4.6183   -3.3321   -1.9486 H   0  0  0  0  0  0  0  0  0  0  0  0
   -4.8475   -3.4996   -0.2214 H   0  0  0  0  0  0  0  0  0  0  0  0
   -2.5800   -4.0976   -1.2091 H   0  0  0  0  0  0  0  0  0  0  0  0
   -2.2487   -2.3720   -1.4373 H   0  0  0  0  0  0  0  0  0  0  0  0
   -1.0131   -5.2050    0.0257 H   0  0  0  0  0  0  0  0  0  0  0  0
    1.4203   -5.4385    0.1857 H   0  0  0  0  0  0  0  0  0  0  0  0
    1.7022   -1.3875    1.6020 H   0  0  0  0  0  0  0  0  0  0  0  0
   -0.5953   -0.6286    2.6888 H   0  0  0  0  0  0  0  0  0  0  0  0
   -1.9727   -0.8016    1.5921 H   0  0  0  0  0  0  0  0  0  0  0  0
   -0.1287    1.7098    2.2749 H   0  0  0  0  0  0  0  0  0  0  0  0
   -1.7794    1.5833    1.6440 H   0  0  0  0  0  0  0  0  0  0  0  0
    3.5289   -4.5110    0.9419 H   0  0  0  0  0  0  0  0  0  0  0  0
    7.4311   -2.6851    1.1815 H   0  0  0  0  0  0  0  0  0  0  0  0
    7.1249   -0.2338    0.7931 H   0  0  0  0  0  0  0  0  0  0  0  0
    6.0504    2.0650    1.5781 H   0  0  0  0  0  0  0  0  0  0  0  0
    4.9239    4.2572    0.6237 H   0  0  0  0  0  0  0  0  0  0  0  0
    1.9680    3.4402   -1.8793 H   0  0  0  0  0  0  0  0  0  0  0  0
    3.3721    4.5075   -1.9691 H   0  0  0  0  0  0  0  0  0  0  0  0
    0.4321    5.7220    0.2345 H   0  0  0  0  0  0  0  0  0  0  0  0
    0.3112    4.7987   -1.2498 H   0  0  0  0  0  0  0  0  0  0  0  0
   -5.1176   -0.1202   -2.4719 H   0  0  0  0  0  0  0  0  0  0  0  0
   -3.6496   -1.0702   -2.6629 H   0  0  0  0  0  0  0  0  0  0  0  0
  1  2  2  0
  2  3  1  0
  3  4  1  0
  4  5  1  0
  5  6  1  0
  6  7  1  0
  7  8  1  0
  8  9  1  0
  9 10  1  0
 10 11  1  0
 11 12  1  0
 12 13  1  0
 13 14  2  0
 14 15  1  0
 15 16  2  0
 16 17  1  0
 17 18  2  0
 18 19  1  0
 19 20  1  0
 20 21  1  0
 16 22  1  0
 22 23  1  0
 23 24  1  0
 24 25  2  0
 25 26  1  0
 26 27  2  0
 27 28  1  0
 27 29  1  0
 29 30  2  0
 30 31  1  0
 31 32  2  0
 32 33  1  0
 32 34  1  0
 34 35  1  0
 35 36  1  0
  9 37  1  0
 36  1  1  0
 21  2  1  0
 28 23  2  0
 33 29  1  0
 37  6  1  0
 18 13  1  0
  1 38  1  0
  3 39  1  0
  3 40  1  0
  4 41  1  0
  5 42  1  0
  5 43  1  0
  6 44  1  0
  7 45  1  0
  7 46  1  0
  8 47  1  0
  8 48  1  0
 10 49  1  0
 10 50  1  0
 11 51  1  0
 11 52  1  0
 14 53  1  0
 15 54  1  0
 17 55  1  0
 19 56  1  0
 19 57  1  0
 21 58  1  0
 21 59  1  0
 22 60  1  0
 25 61  1  0
 26 62  1  0
 30 63  1  0
 31 64  1  0
 34 65  1  0
 34 66  1  0
 36 67  1  0
 36 68  1  0
 37 69  1  0
 37 70  1  0
M  END
>  <candidate_id>  (114) 
CAND_2aa8e00931

>  <source_generator>  (114) 
v5_3_model_guided_macrocycle

>  <parent_mol_id>  (114) 
JAK2_522c241c10

>  <canonical_smiles>  (114) 
C1=C2\CNCC3CCN(CCOc4ccc(cc4COC2)Nc2nccc(n2)-c2ccc(s2)COC/1)C3

>  <inchikey>  (114) 
QEQULLILODNDDM-QPSGOUHRSA-N

>  <valid_rdkit>  (114) 
True

>  <unique_flag>  (114) 
True

>  <novel_flag>  (114) 
True

>  <mw>  (114) 
519.671

>  <logp>  (114) 
4.2258

>  <tpsa>  (114) 
80.77

>  <hbd>  (114) 
2

>  <hba>  (114) 
9

>  <rotatable_bonds>  (114) 
0

>  <qed>  (114) 
0.4275

>  <sa_score>  (114) 
4.843

>  <murcko_scaffold>  (114) 
C1=C2\CNCC3CCN(CCOc4ccc(cc4COC2)Nc2nccc(n2)-c2ccc(s2)COC/1)C3

>  <max_ring_size>  (114) 
18

>  <has_macrocycle_12_20>  (114) 
True

>  <has_constrained_ring_8_11>  (114) 
False

>  <passes_basic_filters>  (114) 
True

>  <generation_notes>  (114) 
v5_3_model_guided_anchor_pair=1-16;anchor_scores=0.312,0.079;linker_length=3;target_ring=14;linker_prob=0.414;chemotype=aza

$$$$
