CAND_f0bd1b6255
     RDKit          3D

 68 74  0  0  0  0  0  0  0  0999 V2000
    8.0887    1.5257   -0.4845 N   0  0  0  0  0  0  0  0  0  0  0  0
    6.7992    1.8421   -0.1668 C   0  0  0  0  0  0  0  0  0  0  0  0
    6.4235    3.0106   -0.1796 O   0  0  0  0  0  0  0  0  0  0  0  0
    5.8668    0.7582    0.2028 C   0  0  0  0  0  0  0  0  0  0  0  0
    6.1257   -0.6042    0.0835 C   0  0  0  0  0  0  0  0  0  0  0  0
    5.2343   -1.6056    0.3272 N   0  0  0  0  0  0  0  0  0  0  0  0
    3.9878   -1.2899    0.7454 C   0  0  0  0  0  0  0  0  0  0  0  0
    3.7015    0.0506    1.0696 C   0  0  0  0  0  0  0  0  0  0  0  0
    4.5930    1.0513    0.6975 C   0  0  0  0  0  0  0  0  0  0  0  0
    3.9309    2.2541    0.8631 N   0  0  0  0  0  0  0  0  0  0  0  0
    2.6477    2.0369    1.3136 C   0  0  0  0  0  0  0  0  0  0  0  0
    1.5201    2.8701    1.3734 C   0  0  0  0  0  0  0  0  0  0  0  0
    0.3186    2.2836    1.8237 C   0  0  0  0  0  0  0  0  0  0  0  0
    0.3666    1.0404    2.4860 C   0  0  0  0  0  0  0  0  0  0  0  0
    1.4791    0.2165    2.3806 C   0  0  0  0  0  0  0  0  0  0  0  0
    2.5861    0.6932    1.6697 C   0  0  0  0  0  0  0  0  0  0  0  0
   -1.0106    2.7055    1.3251 C   0  0  0  0  0  0  0  0  0  0  0  0
   -1.1874    2.9013   -0.0426 C   0  0  0  0  0  0  0  0  0  0  0  0
   -2.3693    2.4583   -0.6279 C   0  0  0  0  0  0  0  0  0  0  0  0
   -3.3259    1.8642    0.1749 C   0  0  0  0  0  0  0  0  0  0  0  0
   -3.2165    1.9155    1.5186 N   0  0  0  0  0  0  0  0  0  0  0  0
   -2.0604    2.3494    2.1005 N   0  0  0  0  0  0  0  0  0  0  0  0
   -4.3321    1.0761   -0.4141 N   0  0  0  0  0  0  0  0  0  0  0  0
   -5.6687    1.6518   -0.2056 C   0  0  0  0  0  0  0  0  0  0  0  0
   -6.3281    1.1238    1.0496 C   0  0  0  0  0  0  0  0  0  0  0  0
   -6.6143   -0.6192    0.8663 S   0  0  0  0  0  0  0  0  0  0  0  0
   -6.2839   -1.2730    2.1183 O   0  0  0  0  0  0  0  0  0  0  0  0
   -7.9270   -0.7918    0.2708 O   0  0  0  0  0  0  0  0  0  0  0  0
   -5.4261   -1.1420   -0.3407 C   0  0  0  0  0  0  0  0  0  0  0  0
   -4.1160   -0.3841   -0.1585 C   0  0  0  0  0  0  0  0  0  0  0  0
   -3.0872   -1.0206   -1.1438 C   0  0  0  0  0  0  0  0  0  0  0  0
   -1.7365   -0.5633   -1.0645 O   0  0  0  0  0  0  0  0  0  0  0  0
   -0.9726   -1.0077    0.0601 C   0  0  0  0  0  0  0  0  0  0  0  0
   -0.5612   -2.4500   -0.0443 C   0  0  0  0  0  0  0  0  0  0  0  0
   -0.2146   -3.0385   -1.3837 C   0  0  0  0  0  0  0  0  0  0  0  0
    0.8667   -2.9681   -0.3261 C   0  0  0  0  0  0  0  0  0  0  0  0
    2.1145   -2.1122   -0.5502 C   0  0  2  0  0  0  0  0  0  0  0  0
    2.8500   -2.5103   -1.8782 C   0  0  0  0  0  0  0  0  0  0  0  0
    3.3781   -3.7562   -1.7901 F   0  0  0  0  0  0  0  0  0  0  0  0
    2.0200   -2.5020   -2.9484 F   0  0  0  0  0  0  0  0  0  0  0  0
    3.8558   -1.6559   -2.1808 F   0  0  0  0  0  0  0  0  0  0  0  0
    3.0045   -2.2813    0.6496 N   0  0  0  0  0  0  0  0  0  0  0  0
    8.4926    0.6019   -0.4647 H   0  0  0  0  0  0  0  0  0  0  0  0
    8.6998    2.2950   -0.7312 H   0  0  0  0  0  0  0  0  0  0  0  0
    7.0812   -0.9707   -0.2777 H   0  0  0  0  0  0  0  0  0  0  0  0
    4.3219    3.1459    0.5794 H   0  0  0  0  0  0  0  0  0  0  0  0
    1.5391    3.8604    0.9290 H   0  0  0  0  0  0  0  0  0  0  0  0
   -0.5375    0.6071    2.9145 H   0  0  0  0  0  0  0  0  0  0  0  0
    1.4376   -0.8126    2.7270 H   0  0  0  0  0  0  0  0  0  0  0  0
   -0.3574    3.1702   -0.6882 H   0  0  0  0  0  0  0  0  0  0  0  0
   -2.4674    2.4306   -1.7078 H   0  0  0  0  0  0  0  0  0  0  0  0
   -5.6213    2.7483   -0.1690 H   0  0  0  0  0  0  0  0  0  0  0  0
   -6.2841    1.4149   -1.0827 H   0  0  0  0  0  0  0  0  0  0  0  0
   -7.2985    1.6006    1.2159 H   0  0  0  0  0  0  0  0  0  0  0  0
   -5.7117    1.2700    1.9400 H   0  0  0  0  0  0  0  0  0  0  0  0
   -5.2965   -2.2212   -0.2070 H   0  0  0  0  0  0  0  0  0  0  0  0
   -5.8583   -0.9682   -1.3324 H   0  0  0  0  0  0  0  0  0  0  0  0
   -3.7685   -0.5341    0.8716 H   0  0  0  0  0  0  0  0  0  0  0  0
   -3.0917   -2.1121   -1.0392 H   0  0  0  0  0  0  0  0  0  0  0  0
   -3.4135   -0.8065   -2.1689 H   0  0  0  0  0  0  0  0  0  0  0  0
   -0.0886   -0.3720    0.0806 H   0  0  0  0  0  0  0  0  0  0  0  0
   -1.5241   -0.8309    0.9881 H   0  0  0  0  0  0  0  0  0  0  0  0
   -1.1722   -3.0619    0.6135 H   0  0  0  0  0  0  0  0  0  0  0  0
   -0.6205   -4.0146   -1.6296 H   0  0  0  0  0  0  0  0  0  0  0  0
   -0.1880   -2.3637   -2.2335 H   0  0  0  0  0  0  0  0  0  0  0  0
    1.1342   -3.9219    0.1238 H   0  0  0  0  0  0  0  0  0  0  0  0
    1.8097   -1.0661   -0.6531 H   0  0  0  0  0  0  0  0  0  0  0  0
    3.4626   -3.1912    0.6679 H   0  0  0  0  0  0  0  0  0  0  0  0
  1  2  1  0
  2  3  2  0
  2  4  1  0
  4  5  1  0
  5  6  2  0
  6  7  1  0
  7  8  2  0
  8  9  1  0
  9 10  1  0
 10 11  1  0
 11 12  1  0
 12 13  2  0
 13 14  1  0
 14 15  2  0
 15 16  1  0
 13 17  1  0
 17 18  2  0
 18 19  1  0
 19 20  2  0
 20 21  1  0
 21 22  2  0
 20 23  1  0
 23 24  1  0
 24 25  1  0
 25 26  1  0
 26 27  2  0
 26 28  2  0
 26 29  1  0
 29 30  1  0
 30 31  1  0
 31 32  1  0
 32 33  1  0
 33 34  1  0
 34 35  1  0
 35 36  1  0
 36 37  1  0
 37 38  1  0
 38 39  1  0
 38 40  1  0
 38 41  1  0
 37 42  1  0
  9  4  2  0
 16 11  2  0
 22 17  1  0
 30 23  1  0
 36 34  1  0
 42  7  1  0
 16  8  1  0
  1 43  1  0
  1 44  1  0
  5 45  1  0
 10 46  1  0
 12 47  1  0
 14 48  1  0
 15 49  1  0
 18 50  1  0
 19 51  1  0
 24 52  1  0
 24 53  1  0
 25 54  1  0
 25 55  1  0
 29 56  1  0
 29 57  1  0
 30 58  1  0
 31 59  1  0
 31 60  1  0
 33 61  1  0
 33 62  1  0
 34 63  1  0
 35 64  1  0
 35 65  1  0
 36 66  1  0
 37 67  1  6
 42 68  1  0
M  END
>  <candidate_id>  (1) 
CAND_f0bd1b6255

>  <source_generator>  (1) 
v5_3_model_guided_macrocycle

>  <parent_mol_id>  (1) 
JAK2_b8536fbab5

>  <canonical_smiles>  (1) 
NC(=O)c1cnc2c3c1[nH]c1cc(ccc13)-c1ccc(nn1)N1CCS(=O)(=O)CC1COCC1CC1[C@H](C(F)(F)F)N2

>  <inchikey>  (1) 
HZSOISHLLRBLLV-VUVLQECESA-N

>  <valid_rdkit>  (1) 
True

>  <unique_flag>  (1) 
True

>  <novel_flag>  (1) 
True

>  <mw>  (1) 
601.611

>  <logp>  (1) 
2.8845

>  <tpsa>  (1) 
156.19

>  <hbd>  (1) 
3

>  <hba>  (1) 
9

>  <rotatable_bonds>  (1) 
1

>  <qed>  (1) 
0.2986

>  <sa_score>  (1) 
5.923

>  <murcko_scaffold>  (1) 
O=S1(=O)CCN2c3ccc(nn3)-c3ccc4c(c3)[nH]c3ccnc(c34)NCC3CC3COCC2C1

>  <max_ring_size>  (1) 
19

>  <has_macrocycle_12_20>  (1) 
True

>  <has_constrained_ring_8_11>  (1) 
False

>  <passes_basic_filters>  (1) 
True

>  <generation_notes>  (1) 
v5_3_model_guided_anchor_pair=10-27;anchor_scores=0.079,0.079;linker_length=3;target_ring=18;linker_prob=0.649;chemotype=oxa

$$$$
