CAND_8f245c542f
     RDKit          3D

 68 74  0  0  0  0  0  0  0  0999 V2000
    8.0706   -1.9651    1.1420 N   0  0  0  0  0  0  0  0  0  0  0  0
    6.7636   -2.2429    0.8613 C   0  0  0  0  0  0  0  0  0  0  0  0
    6.2892   -3.3397    1.1416 O   0  0  0  0  0  0  0  0  0  0  0  0
    5.9277   -1.2013    0.2290 C   0  0  0  0  0  0  0  0  0  0  0  0
    6.3724    0.0534   -0.1763 C   0  0  0  0  0  0  0  0  0  0  0  0
    5.5937    1.0423   -0.6964 N   0  0  0  0  0  0  0  0  0  0  0  0
    4.2714    0.8210   -0.8639 C   0  0  0  0  0  0  0  0  0  0  0  0
    3.7612   -0.4701   -0.6200 C   0  0  0  0  0  0  0  0  0  0  0  0
    4.5704   -1.4291   -0.0187 C   0  0  0  0  0  0  0  0  0  0  0  0
    3.7622   -2.5120    0.2722 N   0  0  0  0  0  0  0  0  0  0  0  0
    2.4722   -2.2886   -0.1535 C   0  0  0  0  0  0  0  0  0  0  0  0
    1.2901   -3.0243    0.0373 C   0  0  0  0  0  0  0  0  0  0  0  0
    0.1121   -2.5116   -0.5332 C   0  0  0  0  0  0  0  0  0  0  0  0
    0.1752   -1.3796   -1.3700 C   0  0  0  0  0  0  0  0  0  0  0  0
    1.3445   -0.6476   -1.5167 C   0  0  0  0  0  0  0  0  0  0  0  0
    2.4912   -1.0743   -0.8356 C   0  0  0  0  0  0  0  0  0  0  0  0
   -1.2306   -2.9269   -0.1103 C   0  0  0  0  0  0  0  0  0  0  0  0
   -2.2081   -3.2654   -1.0350 C   0  0  0  0  0  0  0  0  0  0  0  0
   -3.5015   -2.8051   -0.8079 C   0  0  0  0  0  0  0  0  0  0  0  0
   -3.7396   -2.0267    0.3179 C   0  0  0  0  0  0  0  0  0  0  0  0
   -2.8238   -1.9535    1.3034 N   0  0  0  0  0  0  0  0  0  0  0  0
   -1.5647   -2.4192    1.0983 N   0  0  0  0  0  0  0  0  0  0  0  0
   -4.7742   -1.0875    0.2756 N   0  0  0  0  0  0  0  0  0  0  0  0
   -6.1009   -1.6001    0.6121 C   0  0  0  0  0  0  0  0  0  0  0  0
   -6.5801   -1.0176    1.9201 C   0  0  0  0  0  0  0  0  0  0  0  0
   -6.8200    0.7309    1.7142 S   0  0  0  0  0  0  0  0  0  0  0  0
   -8.1235    0.9204    1.1030 O   0  0  0  0  0  0  0  0  0  0  0  0
   -6.5015    1.3704    2.9765 O   0  0  0  0  0  0  0  0  0  0  0  0
   -5.5949    1.2187    0.5174 C   0  0  0  0  0  0  0  0  0  0  0  0
   -4.3748    0.3129    0.6262 C   0  0  0  0  0  0  0  0  0  0  0  0
   -3.2253    0.7982   -0.3185 C   0  0  0  0  0  0  0  0  0  0  0  0
   -2.6122    2.4958   -0.0161 S   0  0  0  0  0  0  0  0  0  0  0  0
   -1.0672    2.4610   -1.0018 C   0  0  0  0  0  0  0  0  0  0  0  0
    0.1109    2.3656   -0.0748 C   0  0  0  0  0  0  0  0  0  0  0  0
    0.5093    3.5830    0.7127 C   0  0  0  0  0  0  0  0  0  0  0  0
    1.4446    3.0677   -0.3618 C   0  0  0  0  0  0  0  0  0  0  0  0
    2.7903    2.4745    0.0572 C   0  0  2  0  0  0  0  0  0  0  0  0
    3.6879    3.5369    0.7736 C   0  0  0  0  0  0  0  0  0  0  0  0
    3.0432    4.1537    1.7913 F   0  0  0  0  0  0  0  0  0  0  0  0
    4.0858    4.4995   -0.0957 F   0  0  0  0  0  0  0  0  0  0  0  0
    4.8021    2.9844    1.3072 F   0  0  0  0  0  0  0  0  0  0  0  0
    3.4594    1.9199   -1.1597 N   0  0  0  0  0  0  0  0  0  0  0  0
    8.6090   -2.7035    1.5792 H   0  0  0  0  0  0  0  0  0  0  0  0
    8.5397   -1.0882    0.9755 H   0  0  0  0  0  0  0  0  0  0  0  0
    7.4122    0.3473   -0.0763 H   0  0  0  0  0  0  0  0  0  0  0  0
    4.0921   -3.3356    0.7637 H   0  0  0  0  0  0  0  0  0  0  0  0
    1.2706   -3.8981    0.6817 H   0  0  0  0  0  0  0  0  0  0  0  0
   -0.7299   -0.9820   -1.8258 H   0  0  0  0  0  0  0  0  0  0  0  0
    1.3518    0.2743   -2.0909 H   0  0  0  0  0  0  0  0  0  0  0  0
   -1.9405   -3.6735   -2.0046 H   0  0  0  0  0  0  0  0  0  0  0  0
   -4.2455   -2.8780   -1.5943 H   0  0  0  0  0  0  0  0  0  0  0  0
   -6.1020   -2.6954    0.6834 H   0  0  0  0  0  0  0  0  0  0  0  0
   -6.7905   -1.3448   -0.2017 H   0  0  0  0  0  0  0  0  0  0  0  0
   -7.5381   -1.4481    2.2250 H   0  0  0  0  0  0  0  0  0  0  0  0
   -5.8510   -1.1688    2.7225 H   0  0  0  0  0  0  0  0  0  0  0  0
   -5.3720    2.2691    0.7222 H   0  0  0  0  0  0  0  0  0  0  0  0
   -6.0550    1.1468   -0.4743 H   0  0  0  0  0  0  0  0  0  0  0  0
   -4.0094    0.3328    1.6625 H   0  0  0  0  0  0  0  0  0  0  0  0
   -3.5578    0.7395   -1.3614 H   0  0  0  0  0  0  0  0  0  0  0  0
   -2.3570    0.1443   -0.2149 H   0  0  0  0  0  0  0  0  0  0  0  0
   -1.0267    3.3863   -1.5861 H   0  0  0  0  0  0  0  0  0  0  0  0
   -1.0752    1.6266   -1.7085 H   0  0  0  0  0  0  0  0  0  0  0  0
    0.1457    1.4066    0.4339 H   0  0  0  0  0  0  0  0  0  0  0  0
    0.7387    3.4273    1.7621 H   0  0  0  0  0  0  0  0  0  0  0  0
   -0.0046    4.5213    0.5264 H   0  0  0  0  0  0  0  0  0  0  0  0
    1.5298    3.6746   -1.2573 H   0  0  0  0  0  0  0  0  0  0  0  0
    2.5886    1.6759    0.7837 H   0  0  0  0  0  0  0  0  0  0  0  0
    4.0187    2.6210   -1.6442 H   0  0  0  0  0  0  0  0  0  0  0  0
  1  2  1  0
  2  3  2  0
  2  4  1  0
  4  5  1  0
  5  6  2  0
  6  7  1  0
  7  8  2  0
  8  9  1  0
  9 10  1  0
 10 11  1  0
 11 12  1  0
 12 13  2  0
 13 14  1  0
 14 15  2  0
 15 16  1  0
 13 17  1  0
 17 18  2  0
 18 19  1  0
 19 20  2  0
 20 21  1  0
 21 22  2  0
 20 23  1  0
 23 24  1  0
 24 25  1  0
 25 26  1  0
 26 27  2  0
 26 28  2  0
 26 29  1  0
 29 30  1  0
 30 31  1  0
 31 32  1  0
 32 33  1  0
 33 34  1  0
 34 35  1  0
 35 36  1  0
 36 37  1  0
 37 38  1  0
 38 39  1  0
 38 40  1  0
 38 41  1  0
 37 42  1  0
  9  4  2  0
 16 11  2  0
 22 17  1  0
 30 23  1  0
 36 34  1  0
 42  7  1  0
 16  8  1  0
  1 43  1  0
  1 44  1  0
  5 45  1  0
 10 46  1  0
 12 47  1  0
 14 48  1  0
 15 49  1  0
 18 50  1  0
 19 51  1  0
 24 52  1  0
 24 53  1  0
 25 54  1  0
 25 55  1  0
 29 56  1  0
 29 57  1  0
 30 58  1  0
 31 59  1  0
 31 60  1  0
 33 61  1  0
 33 62  1  0
 34 63  1  0
 35 64  1  0
 35 65  1  0
 36 66  1  0
 37 67  1  1
 42 68  1  0
M  END
>  <candidate_id>  (1) 
CAND_8f245c542f

>  <source_generator>  (1) 
v5_3_model_guided_macrocycle

>  <parent_mol_id>  (1) 
JAK2_b8536fbab5

>  <canonical_smiles>  (1) 
NC(=O)c1cnc2c3c1[nH]c1cc(ccc13)-c1ccc(nn1)N1CCS(=O)(=O)CC1CSCC1CC1[C@H](C(F)(F)F)N2

>  <inchikey>  (1) 
HPTYTTFDUUTCKH-VUVLQECESA-N

>  <valid_rdkit>  (1) 
True

>  <unique_flag>  (1) 
True

>  <novel_flag>  (1) 
True

>  <mw>  (1) 
617.679

>  <logp>  (1) 
3.6011

>  <tpsa>  (1) 
146.96

>  <hbd>  (1) 
3

>  <hba>  (1) 
9

>  <rotatable_bonds>  (1) 
1

>  <qed>  (1) 
0.2916

>  <sa_score>  (1) 
6.012

>  <murcko_scaffold>  (1) 
O=S1(=O)CCN2c3ccc(nn3)-c3ccc4c(c3)[nH]c3ccnc(c34)NCC3CC3CSCC2C1

>  <max_ring_size>  (1) 
19

>  <has_macrocycle_12_20>  (1) 
True

>  <has_constrained_ring_8_11>  (1) 
False

>  <passes_basic_filters>  (1) 
True

>  <generation_notes>  (1) 
v5_3_model_guided_anchor_pair=10-27;anchor_scores=0.079,0.079;linker_length=3;target_ring=18;linker_prob=0.649;chemotype=thioether

$$$$
