CAND_79995adf19
     RDKit          3D

 68 74  0  0  0  0  0  0  0  0999 V2000
    7.3142   -0.0547   -1.6388 N   0  0  0  0  0  0  0  0  0  0  0  0
    6.0888   -0.6420   -1.5044 C   0  0  0  0  0  0  0  0  0  0  0  0
    5.7135   -1.4845   -2.3145 O   0  0  0  0  0  0  0  0  0  0  0  0
    5.2274   -0.2536   -0.3679 C   0  0  0  0  0  0  0  0  0  0  0  0
    5.5030    0.7624    0.5375 C   0  0  0  0  0  0  0  0  0  0  0  0
    4.6885    1.1576    1.5519 N   0  0  0  0  0  0  0  0  0  0  0  0
    3.4973    0.5425    1.7318 C   0  0  0  0  0  0  0  0  0  0  0  0
    3.1816   -0.5784    0.9329 C   0  0  0  0  0  0  0  0  0  0  0  0
    4.0178   -0.9137   -0.1308 C   0  0  0  0  0  0  0  0  0  0  0  0
    3.3963   -1.9269   -0.8328 N   0  0  0  0  0  0  0  0  0  0  0  0
    2.1883   -2.2487   -0.2619 C   0  0  0  0  0  0  0  0  0  0  0  0
    1.1500   -3.0826   -0.7123 C   0  0  0  0  0  0  0  0  0  0  0  0
   -0.0192   -3.1596    0.0700 C   0  0  0  0  0  0  0  0  0  0  0  0
   -0.0086   -2.5797    1.3556 C   0  0  0  0  0  0  0  0  0  0  0  0
    1.0296   -1.7556    1.7867 C   0  0  0  0  0  0  0  0  0  0  0  0
    2.1041   -1.5159    0.9199 C   0  0  0  0  0  0  0  0  0  0  0  0
   -1.3313   -3.5718   -0.4830 C   0  0  0  0  0  0  0  0  0  0  0  0
   -1.7376   -3.1280   -1.7354 C   0  0  0  0  0  0  0  0  0  0  0  0
   -3.0651   -2.7312   -1.8989 C   0  0  0  0  0  0  0  0  0  0  0  0
   -3.9100   -2.7791   -0.7980 C   0  0  0  0  0  0  0  0  0  0  0  0
   -3.5533   -3.5259    0.2688 N   0  0  0  0  0  0  0  0  0  0  0  0
   -2.2597   -3.9304    0.4286 N   0  0  0  0  0  0  0  0  0  0  0  0
   -4.8548   -1.7680   -0.5802 N   0  0  0  0  0  0  0  0  0  0  0  0
   -5.7234   -1.2739   -1.6495 C   0  0  0  0  0  0  0  0  0  0  0  0
   -6.5239   -0.0669   -1.1836 C   0  0  0  0  0  0  0  0  0  0  0  0
   -5.4159    1.2837   -0.7806 S   0  0  0  0  0  0  0  0  0  0  0  0
   -5.9540    1.9752    0.3760 O   0  0  0  0  0  0  0  0  0  0  0  0
   -5.1406    2.0079   -2.0076 O   0  0  0  0  0  0  0  0  0  0  0  0
   -3.9103    0.4661   -0.2875 C   0  0  0  0  0  0  0  0  0  0  0  0
   -2.9990    1.3641    0.5489 C   0  0  0  0  0  0  0  0  0  0  0  0
   -1.2768    0.7445    0.3718 S   0  0  0  0  0  0  0  0  0  0  0  0
   -0.3954    1.7107    1.6278 C   0  0  0  0  0  0  0  0  0  0  0  0
    0.9672    2.2726    1.1942 C   0  0  0  0  0  0  0  0  0  0  0  0
    0.8573    3.4201    0.1819 C   0  0  0  0  0  0  0  0  0  0  0  0
    1.5170    2.1477   -0.2316 C   0  0  0  0  0  0  0  0  0  0  0  0
    1.9800    2.3714    2.3771 C   0  0  2  0  0  0  0  0  0  0  0  0
    2.9451    3.5941    2.3629 C   0  0  0  0  0  0  0  0  0  0  0  0
    2.2414    4.7479    2.5156 F   0  0  0  0  0  0  0  0  0  0  0  0
    3.6784    3.7219    1.2391 F   0  0  0  0  0  0  0  0  0  0  0  0
    3.8005    3.5371    3.4172 F   0  0  0  0  0  0  0  0  0  0  0  0
    2.6402    1.0648    2.6952 N   0  0  0  0  0  0  0  0  0  0  0  0
   -4.3467   -0.8086    0.4278 C   0  0  0  0  0  0  0  0  0  0  0  0
    7.7176    0.6249   -1.0127 H   0  0  0  0  0  0  0  0  0  0  0  0
    7.8754   -0.3481   -2.4294 H   0  0  0  0  0  0  0  0  0  0  0  0
    6.4125    1.3507    0.4751 H   0  0  0  0  0  0  0  0  0  0  0  0
    3.7723   -2.3181   -1.6894 H   0  0  0  0  0  0  0  0  0  0  0  0
    1.2098   -3.5539   -1.6884 H   0  0  0  0  0  0  0  0  0  0  0  0
   -0.8871   -2.6511    1.9972 H   0  0  0  0  0  0  0  0  0  0  0  0
    0.9545   -1.2348    2.7362 H   0  0  0  0  0  0  0  0  0  0  0  0
   -1.0157   -2.8515   -2.4973 H   0  0  0  0  0  0  0  0  0  0  0  0
   -3.3244   -2.1790   -2.7940 H   0  0  0  0  0  0  0  0  0  0  0  0
   -6.4110   -2.0733   -1.9483 H   0  0  0  0  0  0  0  0  0  0  0  0
   -5.1439   -0.9901   -2.5351 H   0  0  0  0  0  0  0  0  0  0  0  0
   -7.2033    0.2865   -1.9645 H   0  0  0  0  0  0  0  0  0  0  0  0
   -7.1071   -0.2990   -0.2866 H   0  0  0  0  0  0  0  0  0  0  0  0
   -3.4121    0.2277   -1.2374 H   0  0  0  0  0  0  0  0  0  0  0  0
   -3.0181    2.3963    0.1854 H   0  0  0  0  0  0  0  0  0  0  0  0
   -3.2926    1.3570    1.6033 H   0  0  0  0  0  0  0  0  0  0  0  0
   -0.2673    1.0501    2.4912 H   0  0  0  0  0  0  0  0  0  0  0  0
   -1.0230    2.5461    1.9583 H   0  0  0  0  0  0  0  0  0  0  0  0
    1.4802    4.3036    0.2560 H   0  0  0  0  0  0  0  0  0  0  0  0
   -0.1091    3.6431   -0.2627 H   0  0  0  0  0  0  0  0  0  0  0  0
    2.5881    2.1872   -0.4030 H   0  0  0  0  0  0  0  0  0  0  0  0
    1.0186    1.5171   -0.9580 H   0  0  0  0  0  0  0  0  0  0  0  0
    1.3568    2.5633    3.2620 H   0  0  0  0  0  0  0  0  0  0  0  0
    3.1845    1.1592    3.5531 H   0  0  0  0  0  0  0  0  0  0  0  0
   -5.1421   -0.6111    1.1581 H   0  0  0  0  0  0  0  0  0  0  0  0
   -3.5155   -1.2154    1.0167 H   0  0  0  0  0  0  0  0  0  0  0  0
  1  2  1  0
  2  3  2  0
  2  4  1  0
  4  5  2  0
  5  6  1  0
  6  7  2  0
  7  8  1  0
  8  9  2  0
  9 10  1  0
 10 11  1  0
 11 12  2  0
 12 13  1  0
 13 14  2  0
 14 15  1  0
 15 16  2  0
 13 17  1  0
 17 18  2  0
 18 19  1  0
 19 20  2  0
 20 21  1  0
 21 22  2  0
 20 23  1  0
 23 24  1  0
 24 25  1  0
 25 26  1  0
 26 27  2  0
 26 28  2  0
 26 29  1  0
 29 30  1  0
 30 31  1  0
 31 32  1  0
 32 33  1  0
 33 34  1  0
 34 35  1  0
 33 36  1  0
 36 37  1  0
 37 38  1  0
 37 39  1  0
 37 40  1  0
 36 41  1  0
 29 42  1  0
  9  4  1  0
 16 11  1  0
 22 17  1  0
 42 23  1  0
 41  7  1  0
 16  8  1  0
 35 33  1  0
  1 43  1  0
  1 44  1  0
  5 45  1  0
 10 46  1  0
 12 47  1  0
 14 48  1  0
 15 49  1  0
 18 50  1  0
 19 51  1  0
 24 52  1  0
 24 53  1  0
 25 54  1  0
 25 55  1  0
 29 56  1  0
 30 57  1  0
 30 58  1  0
 32 59  1  0
 32 60  1  0
 34 61  1  0
 34 62  1  0
 35 63  1  0
 35 64  1  0
 36 65  1  1
 41 66  1  0
 42 67  1  0
 42 68  1  0
M  END
>  <candidate_id>  (1) 
CAND_79995adf19

>  <source_generator>  (1) 
v5_3_model_guided_macrocycle

>  <parent_mol_id>  (1) 
JAK2_b8536fbab5

>  <canonical_smiles>  (1) 
NC(=O)c1cnc2c3c1[nH]c1cc(ccc13)-c1ccc(nn1)N1CCS(=O)(=O)C(CSCC3(CC3)[C@H](C(F)(F)F)N2)C1

>  <inchikey>  (1) 
KWOAKWBMRZHFMC-FFMAFDDDSA-N

>  <valid_rdkit>  (1) 
True

>  <unique_flag>  (1) 
True

>  <novel_flag>  (1) 
True

>  <mw>  (1) 
617.679

>  <logp>  (1) 
3.7452

>  <tpsa>  (1) 
146.96

>  <hbd>  (1) 
3

>  <hba>  (1) 
9

>  <rotatable_bonds>  (1) 
1

>  <qed>  (1) 
0.2907

>  <sa_score>  (1) 
5.512

>  <murcko_scaffold>  (1) 
O=S1(=O)CCN2CC1CSCC1(CC1)CNc1nccc3[nH]c4cc(ccc4c13)-c1ccc2nn1

>  <max_ring_size>  (1) 
19

>  <has_macrocycle_12_20>  (1) 
True

>  <has_constrained_ring_8_11>  (1) 
False

>  <passes_basic_filters>  (1) 
True

>  <generation_notes>  (1) 
v5_3_model_guided_anchor_pair=9-28;anchor_scores=0.691,0.079;linker_length=3;target_ring=18;linker_prob=0.649;chemotype=thioether

$$$$
