CAND_a57d09f53c
     RDKit          3D

 75 80  0  0  0  0  0  0  0  0999 V2000
    7.0426   -0.8270    1.3683 C   0  0  0  0  0  0  0  0  0  0  0  0
    5.8819   -1.5511    0.7724 C   0  0  0  0  0  0  0  0  0  0  0  0
    6.0204   -2.8471    0.3049 C   0  0  0  0  0  0  0  0  0  0  0  0
    5.0336   -3.5733   -0.2651 N   0  0  0  0  0  0  0  0  0  0  0  0
    3.8421   -2.9800   -0.3768 C   0  0  0  0  0  0  0  0  0  0  0  0
    3.6150   -1.7420    0.0800 N   0  0  0  0  0  0  0  0  0  0  0  0
    4.6078   -1.0298    0.6529 C   0  0  0  0  0  0  0  0  0  0  0  0
    4.1692    0.3134    1.0910 C   0  0  0  0  0  0  0  0  0  0  0  0
    4.3674    0.7786    2.3990 C   0  0  0  0  0  0  0  0  0  0  0  0
    3.8821    2.0285    2.7997 C   0  0  0  0  0  0  0  0  0  0  0  0
    3.1722    2.8326    1.9059 C   0  0  0  0  0  0  0  0  0  0  0  0
    2.9346    2.3977    0.5990 C   0  0  0  0  0  0  0  0  0  0  0  0
    3.4514    1.1486    0.2057 C   0  0  0  0  0  0  0  0  0  0  0  0
    2.1805    3.2582   -0.3891 C   0  0  0  0  0  0  0  0  0  0  0  0
    0.9735    3.7657    0.1902 O   0  0  0  0  0  0  0  0  0  0  0  0
    0.0624    4.2692   -0.7951 C   0  0  0  0  0  0  0  0  0  0  0  0
   -0.8703    3.1504   -1.2059 C   0  0  0  0  0  0  0  0  0  0  0  0
   -0.6817    2.5404   -2.4010 C   0  0  0  0  0  0  0  0  0  0  0  0
   -1.2771    1.2627   -2.9373 C   0  0  0  0  0  0  0  0  0  0  0  0
   -1.6533    0.3467   -1.9202 O   0  0  0  0  0  0  0  0  0  0  0  0
   -0.5715   -0.1855   -1.1761 C   0  0  0  0  0  0  0  0  0  0  0  0
   -0.2784   -1.6370   -1.4386 C   0  0  0  0  0  0  0  0  0  0  0  0
    1.0603   -2.0224   -1.2541 C   0  0  0  0  0  0  0  0  0  0  0  0
    1.5012   -3.3467   -1.3129 C   0  0  0  0  0  0  0  0  0  0  0  0
    0.5446   -4.3144   -1.6329 C   0  0  0  0  0  0  0  0  0  0  0  0
   -0.7997   -3.9586   -1.8423 C   0  0  0  0  0  0  0  0  0  0  0  0
   -1.2180   -2.6315   -1.7034 C   0  0  0  0  0  0  0  0  0  0  0  0
   -2.5473   -2.3661   -1.8976 O   0  0  0  0  0  0  0  0  0  0  0  0
   -3.2267   -2.0568   -0.6669 C   0  0  0  0  0  0  0  0  0  0  0  0
   -4.3515   -1.0317   -0.9406 C   0  0  0  0  0  0  0  0  0  0  0  0
   -5.0107   -0.4084    0.2186 N   0  0  0  0  0  0  0  0  0  0  0  0
   -5.6343   -1.3699    1.1253 C   0  0  0  0  0  0  0  0  0  0  0  0
   -5.8654   -0.5447    2.3710 C   0  0  0  0  0  0  0  0  0  0  0  0
   -4.5783    0.2510    2.4664 C   0  0  0  0  0  0  0  0  0  0  0  0
   -4.1709    0.5245    1.0038 C   0  0  0  0  0  0  0  0  0  0  0  0
   -4.4450    2.0137    0.6663 C   0  0  0  0  0  0  0  0  0  0  0  0
   -3.5869    2.6982   -0.7996 S   0  0  0  0  0  0  0  0  0  0  0  0
   -1.8871    2.7770   -0.1442 C   0  0  0  0  0  0  0  0  0  0  0  0
    2.8161   -3.7091   -0.9872 N   0  0  0  0  0  0  0  0  0  0  0  0
    7.0180   -0.8999    2.4597 H   0  0  0  0  0  0  0  0  0  0  0  0
    7.0470    0.2275    1.0733 H   0  0  0  0  0  0  0  0  0  0  0  0
    7.9904   -1.2524    1.0203 H   0  0  0  0  0  0  0  0  0  0  0  0
    6.9747   -3.3653    0.3660 H   0  0  0  0  0  0  0  0  0  0  0  0
    4.8748    0.1575    3.1337 H   0  0  0  0  0  0  0  0  0  0  0  0
    4.0410    2.3690    3.8207 H   0  0  0  0  0  0  0  0  0  0  0  0
    2.7879    3.7956    2.2375 H   0  0  0  0  0  0  0  0  0  0  0  0
    3.2777    0.7983   -0.8120 H   0  0  0  0  0  0  0  0  0  0  0  0
    1.9502    2.6649   -1.2806 H   0  0  0  0  0  0  0  0  0  0  0  0
    2.8148    4.0998   -0.6913 H   0  0  0  0  0  0  0  0  0  0  0  0
   -0.5119    5.0832   -0.3387 H   0  0  0  0  0  0  0  0  0  0  0  0
    0.6073    4.7088   -1.6403 H   0  0  0  0  0  0  0  0  0  0  0  0
    0.0703    2.9530   -3.0723 H   0  0  0  0  0  0  0  0  0  0  0  0
   -2.1601    1.4982   -3.5409 H   0  0  0  0  0  0  0  0  0  0  0  0
   -0.5560    0.7700   -3.6011 H   0  0  0  0  0  0  0  0  0  0  0  0
   -0.8312   -0.1130   -0.1138 H   0  0  0  0  0  0  0  0  0  0  0  0
    0.3364    0.4158   -1.3127 H   0  0  0  0  0  0  0  0  0  0  0  0
    1.7691   -1.2316   -1.0363 H   0  0  0  0  0  0  0  0  0  0  0  0
    0.8246   -5.3624   -1.7033 H   0  0  0  0  0  0  0  0  0  0  0  0
   -1.5285   -4.7271   -2.0874 H   0  0  0  0  0  0  0  0  0  0  0  0
   -3.6607   -2.9927   -0.2955 H   0  0  0  0  0  0  0  0  0  0  0  0
   -2.5425   -1.6865    0.1042 H   0  0  0  0  0  0  0  0  0  0  0  0
   -5.1216   -1.5385   -1.5386 H   0  0  0  0  0  0  0  0  0  0  0  0
   -3.9891   -0.2464   -1.6095 H   0  0  0  0  0  0  0  0  0  0  0  0
   -4.9744   -2.2101    1.3691 H   0  0  0  0  0  0  0  0  0  0  0  0
   -6.5715   -1.7641    0.7205 H   0  0  0  0  0  0  0  0  0  0  0  0
   -6.0394   -1.1606    3.2581 H   0  0  0  0  0  0  0  0  0  0  0  0
   -6.7226    0.1277    2.2417 H   0  0  0  0  0  0  0  0  0  0  0  0
   -3.8089   -0.3672    2.9482 H   0  0  0  0  0  0  0  0  0  0  0  0
   -4.7091    1.1518    3.0751 H   0  0  0  0  0  0  0  0  0  0  0  0
   -3.1027    0.3051    0.9169 H   0  0  0  0  0  0  0  0  0  0  0  0
   -5.5205    2.1672    0.5139 H   0  0  0  0  0  0  0  0  0  0  0  0
   -4.1636    2.6522    1.5110 H   0  0  0  0  0  0  0  0  0  0  0  0
   -1.5968    1.8476    0.3446 H   0  0  0  0  0  0  0  0  0  0  0  0
   -1.9034    3.5410    0.6418 H   0  0  0  0  0  0  0  0  0  0  0  0
    3.1254   -4.6404   -1.2154 H   0  0  0  0  0  0  0  0  0  0  0  0
  1  2  1  0
  2  3  2  0
  3  4  1  0
  4  5  2  0
  5  6  1  0
  6  7  2  0
  7  8  1  0
  8  9  2  0
  9 10  1  0
 10 11  2  0
 11 12  1  0
 12 13  2  0
 12 14  1  0
 14 15  1  0
 15 16  1  0
 16 17  1  0
 17 18  2  3
 18 19  1  0
 19 20  1  0
 20 21  1  0
 21 22  1  0
 22 23  2  0
 23 24  1  0
 24 25  2  0
 25 26  1  0
 26 27  2  0
 27 28  1  0
 28 29  1  0
 29 30  1  0
 30 31  1  0
 31 32  1  0
 32 33  1  0
 33 34  1  0
 34 35  1  0
 35 36  1  0
 36 37  1  0
 37 38  1  0
 24 39  1  0
  7  2  1  0
 13  8  1  0
 38 17  1  0
 39  5  1  0
 27 22  1  0
 35 31  1  0
  1 40  1  0
  1 41  1  0
  1 42  1  0
  3 43  1  0
  9 44  1  0
 10 45  1  0
 11 46  1  0
 13 47  1  0
 14 48  1  0
 14 49  1  0
 16 50  1  0
 16 51  1  0
 18 52  1  0
 19 53  1  0
 19 54  1  0
 21 55  1  0
 21 56  1  0
 23 57  1  0
 25 58  1  0
 26 59  1  0
 29 60  1  0
 29 61  1  0
 30 62  1  0
 30 63  1  0
 32 64  1  0
 32 65  1  0
 33 66  1  0
 33 67  1  0
 34 68  1  0
 34 69  1  0
 35 70  1  0
 36 71  1  0
 36 72  1  0
 38 73  1  0
 38 74  1  0
 39 75  1  0
M  END
>  <candidate_id>  (1) 
CAND_a57d09f53c

>  <source_generator>  (1) 
v5_3_model_guided_macrocycle

>  <parent_mol_id>  (1) 
JAK2_5e05d7987e

>  <canonical_smiles>  (1) 
Cc1cnc2nc1-c1cccc(c1)COCC1=CCOCc3cc(ccc3OCCN3CCCC3CSC1)N2

>  <inchikey>  (1) 
BYGZZRJIBQQVLX-UHFFFAOYSA-N

>  <valid_rdkit>  (1) 
True

>  <unique_flag>  (1) 
True

>  <novel_flag>  (1) 
True

>  <mw>  (1) 
544.721

>  <logp>  (1) 
5.7588

>  <tpsa>  (1) 
68.74

>  <hbd>  (1) 
1

>  <hba>  (1) 
8

>  <rotatable_bonds>  (1) 
0

>  <qed>  (1) 
0.3586

>  <sa_score>  (1) 
5.111

>  <murcko_scaffold>  (1) 
C1=C2COCc3cccc(c3)-c3ccnc(n3)Nc3ccc(c(c3)COC1)OCCN1CCCC1CSC2

>  <max_ring_size>  (1) 
18

>  <has_macrocycle_12_20>  (1) 
True

>  <has_constrained_ring_8_11>  (1) 
False

>  <passes_basic_filters>  (1) 
True

>  <generation_notes>  (1) 
v5_3_model_guided_anchor_pair=16-31;anchor_scores=0.312,0.079;linker_length=3;target_ring=14;linker_prob=0.523;chemotype=thioether

$$$$
