CAND_49e76c18fa
     RDKit          3D

 57 62  0  0  0  0  0  0  0  0999 V2000
    7.5350    0.6208   -2.1723 N   0  0  0  0  0  0  0  0  0  0  0  0
    6.7999    0.3921   -1.3044 C   0  0  0  0  0  0  0  0  0  0  0  0
    5.8667    0.1005   -0.2173 C   0  0  2  0  0  0  0  0  0  0  0  0
    5.9709   -1.3402    0.2833 C   0  0  0  0  0  0  0  0  0  0  0  0
    4.6221   -1.5616    0.9490 C   0  0  0  0  0  0  0  0  0  0  0  0
    3.6998   -0.7598    0.1675 N   0  0  0  0  0  0  0  0  0  0  0  0
    2.3335   -0.8804    0.3368 C   0  0  0  0  0  0  0  0  0  0  0  0
    1.8756   -1.6537    1.1847 O   0  0  0  0  0  0  0  0  0  0  0  0
    1.4118   -0.0220   -0.5733 C   0  0  2  0  0  0  0  0  0  0  0  0
    0.4794    0.6943    0.2671 N   0  0  0  0  0  0  0  0  0  0  0  0
    0.8180    1.7779    1.0344 C   0  0  0  0  0  0  0  0  0  0  0  0
    1.9583    2.2249    1.1054 O   0  0  0  0  0  0  0  0  0  0  0  0
   -0.3117    2.3480    1.7549 C   0  0  0  0  0  0  0  0  0  0  0  0
   -0.2665    3.3103    2.7545 C   0  0  0  0  0  0  0  0  0  0  0  0
   -1.5536    3.5636    3.1744 N   0  0  0  0  0  0  0  0  0  0  0  0
   -2.4301    2.8019    2.4527 C   0  0  0  0  0  0  0  0  0  0  0  0
   -3.7709    2.7855    2.5672 N   0  0  0  0  0  0  0  0  0  0  0  0
   -4.3152    1.9196    1.6596 C   0  0  0  0  0  0  0  0  0  0  0  0
   -3.6164    1.1351    0.7222 C   0  0  0  0  0  0  0  0  0  0  0  0
   -2.2641    1.1868    0.6889 N   0  0  0  0  0  0  0  0  0  0  0  0
   -1.6855    2.0446    1.5659 C   0  0  0  0  0  0  0  0  0  0  0  0
   -4.3033    0.2189   -0.3176 C   0  0  0  0  0  0  0  0  0  0  0  0
   -3.3537   -0.4589   -1.3182 C   0  0  0  0  0  0  0  0  0  0  0  0
   -2.6795   -1.7126   -0.7444 C   0  0  0  0  0  0  0  0  0  0  0  0
   -1.6022   -2.2782   -1.6821 C   0  0  0  0  0  0  0  0  0  0  0  0
   -0.2120   -2.0269   -1.1720 C   0  0  0  0  0  0  0  0  0  0  0  0
    0.9701   -2.1617   -2.1039 C   0  0  0  0  0  0  0  0  0  0  0  0
    0.5828   -0.7996   -1.5784 C   0  0  0  0  0  0  0  0  0  0  0  0
   -5.6634    0.6308   -0.8694 C   0  0  0  0  0  0  0  0  0  0  0  0
   -5.5659   -0.5388    0.0638 C   0  0  0  0  0  0  0  0  0  0  0  0
    4.4114    0.1959   -0.6708 C   0  0  0  0  0  0  0  0  0  0  0  0
    6.0339    0.7863    0.6230 H   0  0  0  0  0  0  0  0  0  0  0  0
    6.8073   -1.4941    0.9721 H   0  0  0  0  0  0  0  0  0  0  0  0
    6.0935   -2.0392   -0.5545 H   0  0  0  0  0  0  0  0  0  0  0  0
    4.3187   -2.6129    0.9597 H   0  0  0  0  0  0  0  0  0  0  0  0
    4.6142   -1.1801    1.9763 H   0  0  0  0  0  0  0  0  0  0  0  0
    1.9918    0.7223   -1.1227 H   0  0  0  0  0  0  0  0  0  0  0  0
   -0.4821    0.3653    0.2993 H   0  0  0  0  0  0  0  0  0  0  0  0
    0.5745    3.8242    3.2026 H   0  0  0  0  0  0  0  0  0  0  0  0
   -1.8318    4.2144    3.8951 H   0  0  0  0  0  0  0  0  0  0  0  0
   -5.3998    1.8791    1.7054 H   0  0  0  0  0  0  0  0  0  0  0  0
   -3.9094   -0.7518   -2.2188 H   0  0  0  0  0  0  0  0  0  0  0  0
   -2.6001    0.2615   -1.6597 H   0  0  0  0  0  0  0  0  0  0  0  0
   -2.2671   -1.5133    0.2510 H   0  0  0  0  0  0  0  0  0  0  0  0
   -3.4528   -2.4785   -0.6046 H   0  0  0  0  0  0  0  0  0  0  0  0
   -1.7260   -1.8971   -2.7027 H   0  0  0  0  0  0  0  0  0  0  0  0
   -1.7317   -3.3662   -1.7393 H   0  0  0  0  0  0  0  0  0  0  0  0
   -0.0837   -2.4332   -0.1728 H   0  0  0  0  0  0  0  0  0  0  0  0
    0.7812   -2.3717   -3.1513 H   0  0  0  0  0  0  0  0  0  0  0  0
    1.8543   -2.6566   -1.7177 H   0  0  0  0  0  0  0  0  0  0  0  0
    0.1177   -0.1201   -2.2879 H   0  0  0  0  0  0  0  0  0  0  0  0
   -5.8881    0.4275   -1.9119 H   0  0  0  0  0  0  0  0  0  0  0  0
   -6.1402    1.5367   -0.5137 H   0  0  0  0  0  0  0  0  0  0  0  0
   -5.9655   -0.4362    1.0662 H   0  0  0  0  0  0  0  0  0  0  0  0
   -5.7267   -1.5277   -0.3536 H   0  0  0  0  0  0  0  0  0  0  0  0
    4.0134    1.2055   -0.5320 H   0  0  0  0  0  0  0  0  0  0  0  0
    4.2631   -0.1014   -1.7156 H   0  0  0  0  0  0  0  0  0  0  0  0
  1  2  3  0
  2  3  1  0
  3  4  1  0
  4  5  1  0
  5  6  1  0
  6  7  1  0
  7  8  2  0
  7  9  1  0
  9 10  1  0
 10 11  1  0
 11 12  2  0
 11 13  1  0
 13 14  2  0
 14 15  1  0
 15 16  1  0
 16 17  2  0
 17 18  1  0
 18 19  2  0
 19 20  1  0
 20 21  2  0
 19 22  1  0
 22 23  1  0
 23 24  1  0
 24 25  1  0
 25 26  1  0
 26 27  1  0
 27 28  1  0
 22 29  1  0
 29 30  1  0
  6 31  1  0
 31  3  1  0
 28  9  1  0
 21 13  1  0
 30 22  1  0
 21 16  1  0
 28 26  1  0
  3 32  1  1
  4 33  1  0
  4 34  1  0
  5 35  1  0
  5 36  1  0
  9 37  1  6
 10 38  1  0
 14 39  1  0
 15 40  1  0
 18 41  1  0
 23 42  1  0
 23 43  1  0
 24 44  1  0
 24 45  1  0
 25 46  1  0
 25 47  1  0
 26 48  1  0
 27 49  1  0
 27 50  1  0
 28 51  1  0
 29 52  1  0
 29 53  1  0
 30 54  1  0
 30 55  1  0
 31 56  1  0
 31 57  1  0
M  END
>  <candidate_id>  (1) 
CAND_49e76c18fa

>  <source_generator>  (1) 
v5_3_model_guided_macrocycle

>  <parent_mol_id>  (1) 
JAK2_69b6c7ad6e

>  <canonical_smiles>  (1) 
N#C[C@@H]1CCN(C(=O)[C@@H]2NC(=O)c3c[nH]c4ncc(nc34)C3(CCCC4CC42)CC3)C1

>  <inchikey>  (1) 
XBZKYLTXKLNUSQ-WYXOVGLDSA-N

>  <valid_rdkit>  (1) 
True

>  <unique_flag>  (1) 
True

>  <novel_flag>  (1) 
True

>  <mw>  (1) 
418.501

>  <logp>  (1) 
2.28

>  <tpsa>  (1) 
114.77

>  <hbd>  (1) 
2

>  <hba>  (1) 
5

>  <rotatable_bonds>  (1) 
1

>  <qed>  (1) 
0.7373

>  <sa_score>  (1) 
4.906

>  <murcko_scaffold>  (1) 
O=C1N[C@@H](C(=O)N2CCCC2)C2CC2CCCC2(CC2)c2cnc3[nH]cc1c3n2

>  <max_ring_size>  (1) 
13

>  <has_macrocycle_12_20>  (1) 
True

>  <has_constrained_ring_8_11>  (1) 
False

>  <passes_basic_filters>  (1) 
True

>  <generation_notes>  (1) 
v5_3_model_guided_anchor_pair=19-25;anchor_scores=0.691,0.079;linker_length=3;target_ring=12;linker_prob=0.278;chemotype=alkyl

$$$$
