CAND_5152217faa
     RDKit          3D

 71 77  0  0  0  0  0  0  0  0999 V2000
   -4.4525    1.5698   -1.1334 F   0  0  0  0  0  0  0  0  0  0  0  0
   -3.8951    0.6795   -0.3001 C   0  0  0  0  0  0  0  0  0  0  0  0
   -4.0551   -0.6781   -0.5853 C   0  0  0  0  0  0  0  0  0  0  0  0
   -3.4857   -1.6515    0.2465 C   0  0  0  0  0  0  0  0  0  0  0  0
   -2.8282   -1.2206    1.4078 C   0  0  0  0  0  0  0  0  0  0  0  0
   -2.6743    0.1378    1.6732 C   0  0  0  0  0  0  0  0  0  0  0  0
   -2.0007    0.4980    2.7759 F   0  0  0  0  0  0  0  0  0  0  0  0
   -3.1572    1.1135    0.8022 C   0  0  0  0  0  0  0  0  0  0  0  0
   -2.8773    2.5728    1.0539 C   0  0  0  0  0  0  0  0  0  0  0  0
   -2.2599    3.2675   -0.0749 N   0  0  0  0  0  0  0  0  0  0  0  0
   -2.3093    4.7226    0.0288 C   0  0  0  0  0  0  0  0  0  0  0  0
   -2.1075    5.3644   -1.3578 C   0  0  0  0  0  0  0  0  0  0  0  0
   -1.1861    4.6733   -2.2108 O   0  0  0  0  0  0  0  0  0  0  0  0
   -0.2569    3.8850   -1.4696 C   0  0  0  0  0  0  0  0  0  0  0  0
   -0.9542    2.7946   -0.5972 C   0  0  0  0  0  0  0  0  0  0  0  0
    0.0537    2.2804    0.4627 C   0  0  0  0  0  0  0  0  0  0  0  0
    1.2918    1.6081   -0.1564 C   0  0  0  0  0  0  0  0  0  0  0  0
    2.1842    0.9748    0.9269 C   0  0  0  0  0  0  0  0  0  0  0  0
    3.2583   -0.0628    0.4332 C   0  0  0  0  0  0  0  0  0  0  0  0
    4.1300    0.5458   -0.7043 C   0  0  0  0  0  0  0  0  0  0  0  0
    5.2144    1.4585   -0.1395 C   0  0  0  0  0  0  0  0  0  0  0  0
    6.1426    0.7654    0.7521 N   0  0  0  0  0  0  0  0  0  0  0  0
    5.6314   -0.4915    1.2971 C   0  0  0  0  0  0  0  0  0  0  0  0
    4.1550   -0.3987    1.6687 C   0  0  0  0  0  0  0  0  0  0  0  0
    2.6429   -1.3310   -0.0371 N   0  0  0  0  0  0  0  0  0  0  0  0
    1.3396   -1.7355    0.0543 C   0  0  0  0  0  0  0  0  0  0  0  0
    1.2630   -3.0090   -0.4763 C   0  0  0  0  0  0  0  0  0  0  0  0
    2.5936   -3.3044   -0.8251 C   0  0  0  0  0  0  0  0  0  0  0  0
    3.4349   -2.3076   -0.5419 N   0  0  0  0  0  0  0  0  0  0  0  0
    0.0324   -3.7662   -0.5879 C   0  0  0  0  0  0  0  0  0  0  0  0
   -0.0131   -5.0961   -0.9591 C   0  0  0  0  0  0  0  0  0  0  0  0
   -1.1759   -5.7883   -1.0578 N   0  0  0  0  0  0  0  0  0  0  0  0
   -2.3095   -5.1116   -0.7804 C   0  0  0  0  0  0  0  0  0  0  0  0
   -3.5299   -5.7658   -0.8754 C   0  0  0  0  0  0  0  0  0  0  0  0
   -4.7308   -5.1099   -0.6092 C   0  0  0  0  0  0  0  0  0  0  0  0
   -4.7147   -3.7698   -0.2399 C   0  0  0  0  0  0  0  0  0  0  0  0
   -3.4971   -3.0789   -0.1285 C   0  0  0  0  0  0  0  0  0  0  0  0
   -2.2855   -3.7481   -0.3988 C   0  0  0  0  0  0  0  0  0  0  0  0
   -1.1056   -3.0937   -0.3054 N   0  0  0  0  0  0  0  0  0  0  0  0
   -4.5843   -0.9570   -1.4927 H   0  0  0  0  0  0  0  0  0  0  0  0
   -2.3776   -1.9383    2.0891 H   0  0  0  0  0  0  0  0  0  0  0  0
   -2.2726    2.7125    1.9581 H   0  0  0  0  0  0  0  0  0  0  0  0
   -3.8514    3.0290    1.2774 H   0  0  0  0  0  0  0  0  0  0  0  0
   -3.2697    5.0733    0.4254 H   0  0  0  0  0  0  0  0  0  0  0  0
   -1.5355    5.0740    0.7234 H   0  0  0  0  0  0  0  0  0  0  0  0
   -1.7582    6.3961   -1.2426 H   0  0  0  0  0  0  0  0  0  0  0  0
   -3.0617    5.4004   -1.8947 H   0  0  0  0  0  0  0  0  0  0  0  0
    0.4077    3.4083   -2.1977 H   0  0  0  0  0  0  0  0  0  0  0  0
    0.3555    4.5601   -0.8584 H   0  0  0  0  0  0  0  0  0  0  0  0
   -1.1952    1.9603   -1.2688 H   0  0  0  0  0  0  0  0  0  0  0  0
    0.3686    3.1068    1.1124 H   0  0  0  0  0  0  0  0  0  0  0  0
   -0.4205    1.5409    1.1089 H   0  0  0  0  0  0  0  0  0  0  0  0
    1.8745    2.3569   -0.7031 H   0  0  0  0  0  0  0  0  0  0  0  0
    0.9667    0.8565   -0.8825 H   0  0  0  0  0  0  0  0  0  0  0  0
    1.5590    0.5007    1.6952 H   0  0  0  0  0  0  0  0  0  0  0  0
    2.6890    1.8038    1.4414 H   0  0  0  0  0  0  0  0  0  0  0  0
    4.6252   -0.2364   -1.2951 H   0  0  0  0  0  0  0  0  0  0  0  0
    3.5205    1.0907   -1.4320 H   0  0  0  0  0  0  0  0  0  0  0  0
    5.7885    1.8992   -0.9617 H   0  0  0  0  0  0  0  0  0  0  0  0
    4.7513    2.2938    0.3983 H   0  0  0  0  0  0  0  0  0  0  0  0
    6.4359    1.3902    1.5022 H   0  0  0  0  0  0  0  0  0  0  0  0
    5.8011   -1.2986    0.5758 H   0  0  0  0  0  0  0  0  0  0  0  0
    6.2181   -0.7528    2.1853 H   0  0  0  0  0  0  0  0  0  0  0  0
    3.8386   -1.3346    2.1470 H   0  0  0  0  0  0  0  0  0  0  0  0
    4.0553    0.3730    2.4440 H   0  0  0  0  0  0  0  0  0  0  0  0
    0.5607   -1.1121    0.4693 H   0  0  0  0  0  0  0  0  0  0  0  0
    2.9977   -4.2031   -1.2725 H   0  0  0  0  0  0  0  0  0  0  0  0
    0.8795   -5.6659   -1.1892 H   0  0  0  0  0  0  0  0  0  0  0  0
   -3.5435   -6.8134   -1.1681 H   0  0  0  0  0  0  0  0  0  0  0  0
   -5.6738   -5.6449   -0.6928 H   0  0  0  0  0  0  0  0  0  0  0  0
   -5.6552   -3.2624   -0.0327 H   0  0  0  0  0  0  0  0  0  0  0  0
  1  2  1  0
  2  3  1  0
  3  4  2  0
  4  5  1  0
  5  6  2  0
  6  7  1  0
  6  8  1  0
  8  9  1  0
  9 10  1  0
 10 11  1  0
 11 12  1  0
 12 13  1  0
 13 14  1  0
 14 15  1  0
 15 16  1  0
 16 17  1  0
 17 18  1  0
 18 19  1  0
 19 20  1  0
 20 21  1  0
 21 22  1  0
 22 23  1  0
 23 24  1  0
 19 25  1  0
 25 26  1  0
 26 27  2  0
 27 28  1  0
 28 29  2  0
 27 30  1  0
 30 31  2  0
 31 32  1  0
 32 33  2  0
 33 34  1  0
 34 35  2  0
 35 36  1  0
 36 37  2  0
 37 38  1  0
 38 39  2  0
  8  2  2  0
 15 10  1  0
 24 19  1  0
 29 25  1  0
 39 30  1  0
 37  4  1  0
 38 33  1  0
  3 40  1  0
  5 41  1  0
  9 42  1  0
  9 43  1  0
 11 44  1  0
 11 45  1  0
 12 46  1  0
 12 47  1  0
 14 48  1  0
 14 49  1  0
 15 50  1  0
 16 51  1  0
 16 52  1  0
 17 53  1  0
 17 54  1  0
 18 55  1  0
 18 56  1  0
 20 57  1  0
 20 58  1  0
 21 59  1  0
 21 60  1  0
 22 61  1  0
 23 62  1  0
 23 63  1  0
 24 64  1  0
 24 65  1  0
 26 66  1  0
 28 67  1  0
 31 68  1  0
 34 69  1  0
 35 70  1  0
 36 71  1  0
M  END
>  <candidate_id>  (1) 
CAND_5152217faa

>  <source_generator>  (1) 
v5_3_model_guided_macrocycle

>  <parent_mol_id>  (1) 
JAK2_2dc2722230

>  <canonical_smiles>  (1) 
Fc1cc2cc(F)c1CN1CCOCC1CCCC1(CCNCC1)n1cc(cn1)-c1cnc3cccc-2c3n1

>  <inchikey>  (1) 
NCEUIZMIJXOARZ-UHFFFAOYSA-N

>  <valid_rdkit>  (1) 
True

>  <unique_flag>  (1) 
True

>  <novel_flag>  (1) 
True

>  <mw>  (1) 
530.623

>  <logp>  (1) 
4.9019

>  <tpsa>  (1) 
68.1

>  <hbd>  (1) 
1

>  <hba>  (1) 
6

>  <rotatable_bonds>  (1) 
0

>  <qed>  (1) 
0.3489

>  <sa_score>  (1) 
4.653

>  <murcko_scaffold>  (1) 
c1cc2c3nc(cnc3c1)-c1cnn(c1)C1(CCCC3COCCN3Cc3ccc-2cc3)CCNCC1

>  <max_ring_size>  (1) 
18

>  <has_macrocycle_12_20>  (1) 
True

>  <has_constrained_ring_8_11>  (1) 
False

>  <passes_basic_filters>  (1) 
True

>  <generation_notes>  (1) 
v5_3_model_guided_anchor_pair=16-31;anchor_scores=0.691,0.079;linker_length=3;target_ring=17;linker_prob=0.539;chemotype=alkyl

$$$$
