CAND_423486dce5
     RDKit          3D

 60 65  0  0  0  0  0  0  0  0999 V2000
    7.5633    2.0286   -2.8403 N   0  0  0  0  0  0  0  0  0  0  0  0
    6.9082    1.3714   -2.1441 C   0  0  0  0  0  0  0  0  0  0  0  0
    6.1058    0.5378   -1.2841 C   0  0  0  0  0  0  0  0  0  0  0  0
    5.5513    1.2193   -0.0206 C   0  0  0  0  0  0  0  0  0  0  0  0
    4.2826    0.6077   -0.3617 N   0  0  0  0  0  0  0  0  0  0  0  0
    3.1211    0.5421    0.3561 C   0  0  0  0  0  0  0  0  0  0  0  0
    3.0704    0.9425    1.5218 O   0  0  0  0  0  0  0  0  0  0  0  0
    1.9012   -0.0818   -0.3790 C   0  0  2  0  0  0  0  0  0  0  0  0
    0.7483    0.7618   -0.1160 N   0  0  0  0  0  0  0  0  0  0  0  0
    0.6691    2.0379   -0.6209 C   0  0  0  0  0  0  0  0  0  0  0  0
    1.5333    2.5169   -1.3498 O   0  0  0  0  0  0  0  0  0  0  0  0
   -0.4785    2.8001   -0.1583 C   0  0  0  0  0  0  0  0  0  0  0  0
   -0.4965    4.1770    0.0301 C   0  0  0  0  0  0  0  0  0  0  0  0
   -1.7230    4.5332    0.5347 N   0  0  0  0  0  0  0  0  0  0  0  0
   -2.5122    3.4237    0.6398 C   0  0  0  0  0  0  0  0  0  0  0  0
   -3.7794    3.3922    1.0934 N   0  0  0  0  0  0  0  0  0  0  0  0
   -4.2842    2.1301    1.0093 C   0  0  0  0  0  0  0  0  0  0  0  0
   -3.6113    1.0020    0.5137 C   0  0  0  0  0  0  0  0  0  0  0  0
   -2.3146    1.0931    0.1238 N   0  0  0  0  0  0  0  0  0  0  0  0
   -1.7761    2.3368    0.1873 C   0  0  0  0  0  0  0  0  0  0  0  0
   -4.3064   -0.3610    0.3588 C   0  0  0  0  0  0  0  0  0  0  0  0
   -3.8194   -1.4506    1.3132 C   0  0  0  0  0  0  0  0  0  0  0  0
   -2.8691   -2.4931    0.6992 C   0  0  0  0  0  0  0  0  0  0  0  0
   -1.5827   -1.8817    0.1488 C   0  0  0  0  0  0  0  0  0  0  0  0
   -0.5951   -2.9210   -0.3775 C   0  0  0  0  0  0  0  0  0  0  0  0
    0.6660   -2.2700   -0.9618 C   0  0  0  0  0  0  0  0  0  0  0  0
    1.5756   -1.5368    0.0340 C   0  0  0  0  0  0  0  0  0  0  0  0
    1.5618   -1.8987    1.5191 C   0  0  0  0  0  0  0  0  0  0  0  0
    2.6710   -2.4027    0.6532 C   0  0  0  0  0  0  0  0  0  0  0  0
   -5.7788   -0.4017   -0.0503 C   0  0  0  0  0  0  0  0  0  0  0  0
   -4.7341   -0.7537   -1.0553 C   0  0  0  0  0  0  0  0  0  0  0  0
    4.6463    0.3277   -1.7324 C   0  0  0  0  0  0  0  0  0  0  0  0
    6.6024   -0.4146   -1.0502 H   0  0  0  0  0  0  0  0  0  0  0  0
    5.9764    0.8650    0.9221 H   0  0  0  0  0  0  0  0  0  0  0  0
    5.5030    2.3128   -0.0277 H   0  0  0  0  0  0  0  0  0  0  0  0
    2.0858   -0.0538   -1.4586 H   0  0  0  0  0  0  0  0  0  0  0  0
    0.0238    0.4408    0.5127 H   0  0  0  0  0  0  0  0  0  0  0  0
    0.2761    4.9191   -0.1282 H   0  0  0  0  0  0  0  0  0  0  0  0
   -2.0205    5.4644    0.7891 H   0  0  0  0  0  0  0  0  0  0  0  0
   -5.3116    2.0442    1.3518 H   0  0  0  0  0  0  0  0  0  0  0  0
   -4.6858   -1.9862    1.7219 H   0  0  0  0  0  0  0  0  0  0  0  0
   -3.3295   -0.9870    2.1794 H   0  0  0  0  0  0  0  0  0  0  0  0
   -2.6129   -3.2202    1.4800 H   0  0  0  0  0  0  0  0  0  0  0  0
   -3.3781   -3.0576   -0.0893 H   0  0  0  0  0  0  0  0  0  0  0  0
   -1.8232   -1.2095   -0.6800 H   0  0  0  0  0  0  0  0  0  0  0  0
   -1.1163   -1.2942    0.9443 H   0  0  0  0  0  0  0  0  0  0  0  0
   -1.0828   -3.4961   -1.1748 H   0  0  0  0  0  0  0  0  0  0  0  0
   -0.3383   -3.6423    0.4050 H   0  0  0  0  0  0  0  0  0  0  0  0
    0.3606   -1.5826   -1.7609 H   0  0  0  0  0  0  0  0  0  0  0  0
    1.2565   -3.0487   -1.4616 H   0  0  0  0  0  0  0  0  0  0  0  0
    0.8649   -2.6295    1.9101 H   0  0  0  0  0  0  0  0  0  0  0  0
    1.7938   -1.1312    2.2515 H   0  0  0  0  0  0  0  0  0  0  0  0
    3.6623   -2.0012    0.8284 H   0  0  0  0  0  0  0  0  0  0  0  0
    2.6860   -3.4668    0.4364 H   0  0  0  0  0  0  0  0  0  0  0  0
   -6.4043   -1.2051    0.3250 H   0  0  0  0  0  0  0  0  0  0  0  0
   -6.3283    0.5179   -0.2184 H   0  0  0  0  0  0  0  0  0  0  0  0
   -4.5397   -0.0522   -1.8612 H   0  0  0  0  0  0  0  0  0  0  0  0
   -4.6781   -1.7873   -1.3736 H   0  0  0  0  0  0  0  0  0  0  0  0
    4.4090   -0.6876   -2.0606 H   0  0  0  0  0  0  0  0  0  0  0  0
    4.2346    1.0601   -2.4340 H   0  0  0  0  0  0  0  0  0  0  0  0
  1  2  3  0
  2  3  1  0
  3  4  1  0
  4  5  1  0
  5  6  1  0
  6  7  2  0
  6  8  1  0
  8  9  1  0
  9 10  1  0
 10 11  2  0
 10 12  1  0
 12 13  2  0
 13 14  1  0
 14 15  1  0
 15 16  2  0
 16 17  1  0
 17 18  2  0
 18 19  1  0
 19 20  2  0
 18 21  1  0
 21 22  1  0
 22 23  1  0
 23 24  1  0
 24 25  1  0
 25 26  1  0
 26 27  1  0
 27 28  1  0
 28 29  1  0
 21 30  1  0
 30 31  1  0
  5 32  1  0
 32  3  1  0
 27  8  1  0
 20 12  1  0
 31 21  1  0
 20 15  1  0
 29 27  1  0
  3 33  1  0
  4 34  1  0
  4 35  1  0
  8 36  1  6
  9 37  1  0
 13 38  1  0
 14 39  1  0
 17 40  1  0
 22 41  1  0
 22 42  1  0
 23 43  1  0
 23 44  1  0
 24 45  1  0
 24 46  1  0
 25 47  1  0
 25 48  1  0
 26 49  1  0
 26 50  1  0
 28 51  1  0
 28 52  1  0
 29 53  1  0
 29 54  1  0
 30 55  1  0
 30 56  1  0
 31 57  1  0
 31 58  1  0
 32 59  1  0
 32 60  1  0
M  END
>  <candidate_id>  (1) 
CAND_423486dce5

>  <source_generator>  (1) 
v5_3_model_guided_macrocycle

>  <parent_mol_id>  (1) 
JAK2_c385760536

>  <canonical_smiles>  (1) 
N#CC1CN(C(=O)[C@@H]2NC(=O)c3c[nH]c4ncc(nc34)C3(CCCCCC24CC4)CC3)C1

>  <inchikey>  (1) 
BMQOWSQTLFWOLA-IBGZPJMESA-N

>  <valid_rdkit>  (1) 
True

>  <unique_flag>  (1) 
True

>  <novel_flag>  (1) 
True

>  <mw>  (1) 
432.528

>  <logp>  (1) 
2.8142

>  <tpsa>  (1) 
114.77

>  <hbd>  (1) 
2

>  <hba>  (1) 
5

>  <rotatable_bonds>  (1) 
1

>  <qed>  (1) 
0.7191

>  <sa_score>  (1) 
4.233

>  <murcko_scaffold>  (1) 
O=C1N[C@@H](C(=O)N2CCC2)C2(CCCCCC3(CC3)c3cnc4[nH]cc1c4n3)CC2

>  <max_ring_size>  (1) 
14

>  <has_macrocycle_12_20>  (1) 
True

>  <has_constrained_ring_8_11>  (1) 
False

>  <passes_basic_filters>  (1) 
True

>  <generation_notes>  (1) 
v5_3_model_guided_anchor_pair=18-23;anchor_scores=0.691,0.691;linker_length=5;target_ring=13;linker_prob=0.225;chemotype=alkyl

$$$$
