CAND_7f6895293f
     RDKit          3D

 70 76  0  0  0  0  0  0  0  0999 V2000
    7.7591    0.4028    2.0604 N   0  0  0  0  0  0  0  0  0  0  0  0
    6.5294    0.9460    1.8206 C   0  0  0  0  0  0  0  0  0  0  0  0
    6.1317    1.8958    2.4884 O   0  0  0  0  0  0  0  0  0  0  0  0
    5.6905    0.3772    0.7452 C   0  0  0  0  0  0  0  0  0  0  0  0
    6.0014   -0.7519   -0.0062 C   0  0  0  0  0  0  0  0  0  0  0  0
    5.2028   -1.3227   -0.9495 N   0  0  0  0  0  0  0  0  0  0  0  0
    4.0027   -0.7644   -1.2221 C   0  0  0  0  0  0  0  0  0  0  0  0
    3.6591    0.4561   -0.6047 C   0  0  0  0  0  0  0  0  0  0  0  0
    4.4639    0.9605    0.4128 C   0  0  0  0  0  0  0  0  0  0  0  0
    3.7820    2.0237    0.9734 N   0  0  0  0  0  0  0  0  0  0  0  0
    2.5677    2.2058    0.3517 C   0  0  0  0  0  0  0  0  0  0  0  0
    1.4605    2.9992    0.6930 C   0  0  0  0  0  0  0  0  0  0  0  0
    0.3169    2.9102   -0.1260 C   0  0  0  0  0  0  0  0  0  0  0  0
    0.3929    2.2051   -1.3433 C   0  0  0  0  0  0  0  0  0  0  0  0
    1.4918    1.4113   -1.6542 C   0  0  0  0  0  0  0  0  0  0  0  0
    2.5525    1.3434   -0.7407 C   0  0  0  0  0  0  0  0  0  0  0  0
   -1.0278    3.2332    0.3826 C   0  0  0  0  0  0  0  0  0  0  0  0
   -2.0406    3.6959   -0.4420 C   0  0  0  0  0  0  0  0  0  0  0  0
   -3.3252    3.1870   -0.2516 C   0  0  0  0  0  0  0  0  0  0  0  0
   -3.5385    2.2459    0.7489 C   0  0  0  0  0  0  0  0  0  0  0  0
   -2.5882    2.0698    1.6879 N   0  0  0  0  0  0  0  0  0  0  0  0
   -1.3304    2.5685    1.5166 N   0  0  0  0  0  0  0  0  0  0  0  0
   -4.5664    1.3151    0.6635 N   0  0  0  0  0  0  0  0  0  0  0  0
   -5.8947    1.6656    0.1824 C   0  0  0  0  0  0  0  0  0  0  0  0
   -6.2556    0.7850   -0.9874 C   0  0  0  0  0  0  0  0  0  0  0  0
   -6.4401   -0.8859   -0.4165 S   0  0  0  0  0  0  0  0  0  0  0  0
   -7.8201   -1.0453    0.0068 O   0  0  0  0  0  0  0  0  0  0  0  0
   -5.8855   -1.7638   -1.4297 O   0  0  0  0  0  0  0  0  0  0  0  0
   -5.4277   -0.9901    1.0414 C   0  0  0  0  0  0  0  0  0  0  0  0
   -4.1982   -0.0926    0.9727 C   0  0  0  0  0  0  0  0  0  0  0  0
   -3.1216   -0.6412   -0.0248 C   0  0  0  0  0  0  0  0  0  0  0  0
   -1.8307   -1.0676    0.6973 C   0  0  0  0  0  0  0  0  0  0  0  0
   -0.6524   -1.3789   -0.2486 C   0  0  0  0  0  0  0  0  0  0  0  0
    0.5851   -1.6693    0.5598 C   0  0  0  0  0  0  0  0  0  0  0  0
    0.9171   -3.1132    0.8229 C   0  0  0  0  0  0  0  0  0  0  0  0
    1.9111   -2.2522    0.0728 C   0  0  0  0  0  0  0  0  0  0  0  0
    2.2916   -2.5483   -1.3695 C   0  0  2  0  0  0  0  0  0  0  0  0
    2.9868   -3.9405   -1.4787 C   0  0  0  0  0  0  0  0  0  0  0  0
    2.1021   -4.9486   -1.2817 F   0  0  0  0  0  0  0  0  0  0  0  0
    3.5036   -4.1147   -2.7234 F   0  0  0  0  0  0  0  0  0  0  0  0
    3.9934   -4.1046   -0.5932 F   0  0  0  0  0  0  0  0  0  0  0  0
    3.1142   -1.4715   -2.0214 N   0  0  0  0  0  0  0  0  0  0  0  0
    8.3029    0.8210    2.8058 H   0  0  0  0  0  0  0  0  0  0  0  0
    8.1785   -0.3623    1.5554 H   0  0  0  0  0  0  0  0  0  0  0  0
    6.9288   -1.2954    0.1419 H   0  0  0  0  0  0  0  0  0  0  0  0
    4.1134    2.5288    1.7878 H   0  0  0  0  0  0  0  0  0  0  0  0
    1.4336    3.5405    1.6347 H   0  0  0  0  0  0  0  0  0  0  0  0
   -0.4745    2.1244   -1.9962 H   0  0  0  0  0  0  0  0  0  0  0  0
    1.4738    0.7676   -2.5290 H   0  0  0  0  0  0  0  0  0  0  0  0
   -1.8123    4.2562   -1.3433 H   0  0  0  0  0  0  0  0  0  0  0  0
   -4.0701    3.3849   -1.0132 H   0  0  0  0  0  0  0  0  0  0  0  0
   -5.9628    2.7164   -0.1191 H   0  0  0  0  0  0  0  0  0  0  0  0
   -6.6156    1.5490    1.0011 H   0  0  0  0  0  0  0  0  0  0  0  0
   -7.2047    1.0867   -1.4394 H   0  0  0  0  0  0  0  0  0  0  0  0
   -5.4763    0.7967   -1.7561 H   0  0  0  0  0  0  0  0  0  0  0  0
   -5.1587   -2.0408    1.1888 H   0  0  0  0  0  0  0  0  0  0  0  0
   -6.0623   -0.6868    1.8825 H   0  0  0  0  0  0  0  0  0  0  0  0
   -3.7781   -0.1161    1.9876 H   0  0  0  0  0  0  0  0  0  0  0  0
   -3.4961   -1.5177   -0.5634 H   0  0  0  0  0  0  0  0  0  0  0  0
   -2.8777    0.1051   -0.7897 H   0  0  0  0  0  0  0  0  0  0  0  0
   -1.5185   -0.2790    1.3894 H   0  0  0  0  0  0  0  0  0  0  0  0
   -2.0411   -1.9490    1.3165 H   0  0  0  0  0  0  0  0  0  0  0  0
   -0.9116   -2.2205   -0.9009 H   0  0  0  0  0  0  0  0  0  0  0  0
   -0.4664   -0.5182   -0.8942 H   0  0  0  0  0  0  0  0  0  0  0  0
    0.6948   -0.9517    1.3708 H   0  0  0  0  0  0  0  0  0  0  0  0
    1.1548   -3.3947    1.8441 H   0  0  0  0  0  0  0  0  0  0  0  0
    0.3723   -3.8802    0.2826 H   0  0  0  0  0  0  0  0  0  0  0  0
    2.7968   -2.0296    0.6649 H   0  0  0  0  0  0  0  0  0  0  0  0
    1.3751   -2.6131   -1.9677 H   0  0  0  0  0  0  0  0  0  0  0  0
    3.6356   -1.8580   -2.8089 H   0  0  0  0  0  0  0  0  0  0  0  0
  1  2  1  0
  2  3  2  0
  2  4  1  0
  4  5  1  0
  5  6  2  0
  6  7  1  0
  7  8  2  0
  8  9  1  0
  9 10  1  0
 10 11  1  0
 11 12  1  0
 12 13  2  0
 13 14  1  0
 14 15  2  0
 15 16  1  0
 13 17  1  0
 17 18  2  0
 18 19  1  0
 19 20  2  0
 20 21  1  0
 21 22  2  0
 20 23  1  0
 23 24  1  0
 24 25  1  0
 25 26  1  0
 26 27  2  0
 26 28  2  0
 26 29  1  0
 29 30  1  0
 30 31  1  0
 31 32  1  0
 32 33  1  0
 33 34  1  0
 34 35  1  0
 35 36  1  0
 36 37  1  0
 37 38  1  0
 38 39  1  0
 38 40  1  0
 38 41  1  0
 37 42  1  0
  9  4  2  0
 16 11  2  0
 22 17  1  0
 30 23  1  0
 36 34  1  0
 42  7  1  0
 16  8  1  0
  1 43  1  0
  1 44  1  0
  5 45  1  0
 10 46  1  0
 12 47  1  0
 14 48  1  0
 15 49  1  0
 18 50  1  0
 19 51  1  0
 24 52  1  0
 24 53  1  0
 25 54  1  0
 25 55  1  0
 29 56  1  0
 29 57  1  0
 30 58  1  0
 31 59  1  0
 31 60  1  0
 32 61  1  0
 32 62  1  0
 33 63  1  0
 33 64  1  0
 34 65  1  0
 35 66  1  0
 35 67  1  0
 36 68  1  0
 37 69  1  6
 42 70  1  0
M  END
>  <candidate_id>  (1) 
CAND_7f6895293f

>  <source_generator>  (1) 
v5_3_model_guided_macrocycle

>  <parent_mol_id>  (1) 
JAK2_b8536fbab5

>  <canonical_smiles>  (1) 
NC(=O)c1cnc2c3c1[nH]c1cc(ccc13)-c1ccc(nn1)N1CCS(=O)(=O)CC1CCCC1CC1[C@H](C(F)(F)F)N2

>  <inchikey>  (1) 
ZJAZRXXCVYSBPT-KQKSEEEZSA-N

>  <valid_rdkit>  (1) 
True

>  <unique_flag>  (1) 
True

>  <novel_flag>  (1) 
True

>  <mw>  (1) 
599.639

>  <logp>  (1) 
4.0382

>  <tpsa>  (1) 
146.96

>  <hbd>  (1) 
3

>  <hba>  (1) 
8

>  <rotatable_bonds>  (1) 
1

>  <qed>  (1) 
0.2972

>  <sa_score>  (1) 
5.912

>  <murcko_scaffold>  (1) 
O=S1(=O)CCN2c3ccc(nn3)-c3ccc4c(c3)[nH]c3ccnc(c34)NCC3CC3CCCC2C1

>  <max_ring_size>  (1) 
19

>  <has_macrocycle_12_20>  (1) 
True

>  <has_constrained_ring_8_11>  (1) 
False

>  <passes_basic_filters>  (1) 
True

>  <generation_notes>  (1) 
v5_3_model_guided_anchor_pair=10-27;anchor_scores=0.079,0.079;linker_length=3;target_ring=18;linker_prob=0.649;chemotype=oxa_aza

$$$$
