CAND_d3037c6bbb
     RDKit          3D

 70 76  0  0  0  0  0  0  0  0999 V2000
   -2.2748    0.8825    2.6724 F   0  0  0  0  0  0  0  0  0  0  0  0
   -2.6010    0.1571    1.5929 C   0  0  0  0  0  0  0  0  0  0  0  0
   -2.4756   -1.2287    1.6622 C   0  0  0  0  0  0  0  0  0  0  0  0
   -2.8155   -2.0353    0.5652 C   0  0  0  0  0  0  0  0  0  0  0  0
   -3.2926   -1.4058   -0.5914 C   0  0  0  0  0  0  0  0  0  0  0  0
   -3.4074   -0.0147   -0.6437 C   0  0  0  0  0  0  0  0  0  0  0  0
   -3.9000    0.5381   -1.7620 F   0  0  0  0  0  0  0  0  0  0  0  0
   -3.0538    0.7925    0.4392 C   0  0  0  0  0  0  0  0  0  0  0  0
   -3.2266    2.2869    0.3959 C   0  0  0  0  0  0  0  0  0  0  0  0
   -2.3812    2.9576   -0.6160 N   0  0  0  0  0  0  0  0  0  0  0  0
   -3.0703    4.1769   -1.1164 C   0  0  0  0  0  0  0  0  0  0  0  0
   -2.7234    5.4876   -0.3779 C   0  0  0  0  0  0  0  0  0  0  0  0
   -2.3458    5.2454    0.9773 O   0  0  0  0  0  0  0  0  0  0  0  0
   -1.1649    4.4233    1.0598 C   0  0  0  0  0  0  0  0  0  0  0  0
   -1.0501    3.3923   -0.0990 C   0  0  0  0  0  0  0  0  0  0  0  0
   -0.0396    2.2596    0.2321 C   0  0  0  0  0  0  0  0  0  0  0  0
    1.3117    2.8039    0.4571 N   0  0  0  0  0  0  0  0  0  0  0  0
    2.3296    1.7708    0.6700 C   0  0  0  0  0  0  0  0  0  0  0  0
    2.8378    1.0583   -0.6051 C   0  0  0  0  0  0  0  0  0  0  0  0
    3.4804    2.0235   -1.6126 C   0  0  0  0  0  0  0  0  0  0  0  0
    3.8451    1.3658   -2.8699 N   0  0  0  0  0  0  0  0  0  0  0  0
    4.1959   -0.0453   -2.7423 C   0  0  0  0  0  0  0  0  0  0  0  0
    4.8345   -0.3663   -1.4015 C   0  0  0  0  0  0  0  0  0  0  0  0
    3.8891   -0.0284   -0.2317 C   0  0  0  0  0  0  0  0  0  0  0  0
    3.3268   -1.2554    0.3334 N   0  0  0  0  0  0  0  0  0  0  0  0
    2.1144   -1.8281    0.0939 C   0  0  0  0  0  0  0  0  0  0  0  0
    2.0749   -2.9960    0.8289 C   0  0  0  0  0  0  0  0  0  0  0  0
    3.3292   -3.0455    1.4649 C   0  0  0  0  0  0  0  0  0  0  0  0
    4.0958   -1.9932    1.1658 N   0  0  0  0  0  0  0  0  0  0  0  0
    0.9346   -3.8804    0.8655 C   0  0  0  0  0  0  0  0  0  0  0  0
    1.0435   -5.2486    1.0186 C   0  0  0  0  0  0  0  0  0  0  0  0
   -0.0369   -6.0671    1.0235 N   0  0  0  0  0  0  0  0  0  0  0  0
   -1.2420   -5.4772    0.8812 C   0  0  0  0  0  0  0  0  0  0  0  0
   -2.3831   -6.2666    0.8671 C   0  0  0  0  0  0  0  0  0  0  0  0
   -3.6522   -5.7079    0.7299 C   0  0  0  0  0  0  0  0  0  0  0  0
   -3.7861   -4.3289    0.6171 C   0  0  0  0  0  0  0  0  0  0  0  0
   -2.6520   -3.4994    0.6346 C   0  0  0  0  0  0  0  0  0  0  0  0
   -1.3716   -4.0718    0.7476 C   0  0  0  0  0  0  0  0  0  0  0  0
   -0.2718   -3.2885    0.7303 N   0  0  0  0  0  0  0  0  0  0  0  0
   -2.0961   -1.6711    2.5801 H   0  0  0  0  0  0  0  0  0  0  0  0
   -3.5683   -1.9843   -1.4690 H   0  0  0  0  0  0  0  0  0  0  0  0
   -3.1083    2.7236    1.3936 H   0  0  0  0  0  0  0  0  0  0  0  0
   -4.2912    2.4300    0.1627 H   0  0  0  0  0  0  0  0  0  0  0  0
   -2.8026    4.3087   -2.1730 H   0  0  0  0  0  0  0  0  0  0  0  0
   -4.1591    4.0432   -1.1323 H   0  0  0  0  0  0  0  0  0  0  0  0
   -1.9057    6.0168   -0.8824 H   0  0  0  0  0  0  0  0  0  0  0  0
   -3.5921    6.1537   -0.3742 H   0  0  0  0  0  0  0  0  0  0  0  0
   -0.2969    5.0924    1.0587 H   0  0  0  0  0  0  0  0  0  0  0  0
   -1.1960    3.9238    2.0340 H   0  0  0  0  0  0  0  0  0  0  0  0
   -0.5904    3.9254   -0.9467 H   0  0  0  0  0  0  0  0  0  0  0  0
   -0.0258    1.5497   -0.6023 H   0  0  0  0  0  0  0  0  0  0  0  0
   -0.3542    1.7270    1.1331 H   0  0  0  0  0  0  0  0  0  0  0  0
    1.5695    3.4129   -0.3167 H   0  0  0  0  0  0  0  0  0  0  0  0
    1.9596    1.0383    1.3977 H   0  0  0  0  0  0  0  0  0  0  0  0
    3.1819    2.2643    1.1537 H   0  0  0  0  0  0  0  0  0  0  0  0
    1.9775    0.5979   -1.1039 H   0  0  0  0  0  0  0  0  0  0  0  0
    4.3741    2.4805   -1.1684 H   0  0  0  0  0  0  0  0  0  0  0  0
    2.8020    2.8425   -1.8675 H   0  0  0  0  0  0  0  0  0  0  0  0
    4.6020    1.8829   -3.3186 H   0  0  0  0  0  0  0  0  0  0  0  0
    4.8781   -0.3179   -3.5553 H   0  0  0  0  0  0  0  0  0  0  0  0
    3.2938   -0.6529   -2.8815 H   0  0  0  0  0  0  0  0  0  0  0  0
    5.1474   -1.4172   -1.3853 H   0  0  0  0  0  0  0  0  0  0  0  0
    5.7542    0.2257   -1.2980 H   0  0  0  0  0  0  0  0  0  0  0  0
    4.5194    0.3745    0.5754 H   0  0  0  0  0  0  0  0  0  0  0  0
    1.3728   -1.3871   -0.5577 H   0  0  0  0  0  0  0  0  0  0  0  0
    3.7189   -3.7934    2.1435 H   0  0  0  0  0  0  0  0  0  0  0  0
    2.0014   -5.7449    1.1239 H   0  0  0  0  0  0  0  0  0  0  0  0
   -2.2784   -7.3449    0.9656 H   0  0  0  0  0  0  0  0  0  0  0  0
   -4.5316   -6.3474    0.7221 H   0  0  0  0  0  0  0  0  0  0  0  0
   -4.7812   -3.8956    0.5315 H   0  0  0  0  0  0  0  0  0  0  0  0
  1  2  1  0
  2  3  1  0
  3  4  2  0
  4  5  1  0
  5  6  2  0
  6  7  1  0
  6  8  1  0
  8  9  1  0
  9 10  1  0
 10 11  1  0
 11 12  1  0
 12 13  1  0
 13 14  1  0
 14 15  1  0
 15 16  1  0
 16 17  1  0
 17 18  1  0
 18 19  1  0
 19 20  1  0
 20 21  1  0
 21 22  1  0
 22 23  1  0
 23 24  1  0
 24 25  1  0
 25 26  1  0
 26 27  2  0
 27 28  1  0
 28 29  2  0
 27 30  1  0
 30 31  2  0
 31 32  1  0
 32 33  2  0
 33 34  1  0
 34 35  2  0
 35 36  1  0
 36 37  2  0
 37 38  1  0
 38 39  2  0
  8  2  2  0
 15 10  1  0
 24 19  1  0
 29 25  1  0
 39 30  1  0
 37  4  1  0
 38 33  1  0
  3 40  1  0
  5 41  1  0
  9 42  1  0
  9 43  1  0
 11 44  1  0
 11 45  1  0
 12 46  1  0
 12 47  1  0
 14 48  1  0
 14 49  1  0
 15 50  1  0
 16 51  1  0
 16 52  1  0
 17 53  1  0
 18 54  1  0
 18 55  1  0
 19 56  1  0
 20 57  1  0
 20 58  1  0
 21 59  1  0
 22 60  1  0
 22 61  1  0
 23 62  1  0
 23 63  1  0
 24 64  1  0
 26 65  1  0
 28 66  1  0
 31 67  1  0
 34 68  1  0
 35 69  1  0
 36 70  1  0
M  END
>  <candidate_id>  (1) 
CAND_d3037c6bbb

>  <source_generator>  (1) 
v5_3_model_guided_macrocycle

>  <parent_mol_id>  (1) 
JAK2_2dc2722230

>  <canonical_smiles>  (1) 
Fc1cc2cc(F)c1CN1CCOCC1CNCC1CNCCC1n1cc(cn1)-c1cnc3cccc-2c3n1

>  <inchikey>  (1) 
LPYRODOGMAJHRM-UHFFFAOYSA-N

>  <valid_rdkit>  (1) 
True

>  <unique_flag>  (1) 
True

>  <novel_flag>  (1) 
True

>  <mw>  (1) 
531.611

>  <logp>  (1) 
3.3931

>  <tpsa>  (1) 
80.13

>  <hbd>  (1) 
2

>  <hba>  (1) 
7

>  <rotatable_bonds>  (1) 
0

>  <qed>  (1) 
0.3602

>  <sa_score>  (1) 
5.159

>  <murcko_scaffold>  (1) 
c1cc2c3nc(cnc3c1)-c1cnn(c1)C1CCNCC1CNCC1COCCN1Cc1ccc-2cc1

>  <max_ring_size>  (1) 
19

>  <has_macrocycle_12_20>  (1) 
True

>  <has_constrained_ring_8_11>  (1) 
False

>  <passes_basic_filters>  (1) 
True

>  <generation_notes>  (1) 
v5_3_model_guided_anchor_pair=17-31;anchor_scores=0.079,0.079;linker_length=3;target_ring=18;linker_prob=0.496;chemotype=aza

$$$$
