CAND_38de1fc846
     RDKit          3D

 55 60  0  0  0  0  0  0  0  0999 V2000
    7.2861   -0.7061   -1.2462 N   0  0  0  0  0  0  0  0  0  0  0  0
    6.4283   -0.2540   -0.6093 C   0  0  0  0  0  0  0  0  0  0  0  0
    5.3424    0.3071    0.1927 C   0  0  2  0  0  0  0  0  0  0  0  0
    5.3719   -0.1676    1.6456 C   0  0  0  0  0  0  0  0  0  0  0  0
    3.9391    0.0580    2.1016 C   0  0  0  0  0  0  0  0  0  0  0  0
    3.1408   -0.1691    0.9109 N   0  0  0  0  0  0  0  0  0  0  0  0
    1.7676   -0.2846    0.9883 C   0  0  0  0  0  0  0  0  0  0  0  0
    1.1878   -0.1567    2.0716 O   0  0  0  0  0  0  0  0  0  0  0  0
    0.9799   -0.5670   -0.3187 C   0  0  2  0  0  0  0  0  0  0  0  0
    0.0053    0.4838   -0.5261 N   0  0  0  0  0  0  0  0  0  0  0  0
    0.2807    1.6644   -1.1673 C   0  0  0  0  0  0  0  0  0  0  0  0
    1.3910    1.9502   -1.6038 O   0  0  0  0  0  0  0  0  0  0  0  0
   -0.8780    2.5369   -1.3080 C   0  0  0  0  0  0  0  0  0  0  0  0
   -0.9165    3.7654   -1.9548 C   0  0  0  0  0  0  0  0  0  0  0  0
   -2.2061    4.2458   -1.9068 N   0  0  0  0  0  0  0  0  0  0  0  0
   -3.0036    3.3526   -1.2473 C   0  0  0  0  0  0  0  0  0  0  0  0
   -4.3274    3.4627   -1.0270 N   0  0  0  0  0  0  0  0  0  0  0  0
   -4.7893    2.3766   -0.3411 C   0  0  0  0  0  0  0  0  0  0  0  0
   -4.0232    1.2830    0.0966 C   0  0  0  0  0  0  0  0  0  0  0  0
   -2.6926    1.2425   -0.1513 N   0  0  0  0  0  0  0  0  0  0  0  0
   -2.1997    2.2983   -0.8469 C   0  0  0  0  0  0  0  0  0  0  0  0
   -4.6523    0.1454    0.8881 C   0  0  0  0  0  0  0  0  0  0  0  0
   -3.8448   -0.4743    2.0105 C   0  0  0  0  0  0  0  0  0  0  0  0
   -4.2094   -1.3135    0.8119 C   0  0  0  0  0  0  0  0  0  0  0  0
   -3.1972   -1.8326   -0.1630 C   0  0  0  0  0  0  0  0  0  0  0  0
   -2.1753   -3.1170    0.6221 S   0  0  0  0  0  0  0  0  0  0  0  0
   -0.6504   -2.1748    0.9031 C   0  0  0  0  0  0  0  0  0  0  0  0
    0.2501   -1.9258   -0.3081 C   0  0  0  0  0  0  0  0  0  0  0  0
   -0.0264   -2.5492   -1.6782 C   0  0  0  0  0  0  0  0  0  0  0  0
    1.0454   -3.1267   -0.8088 C   0  0  0  0  0  0  0  0  0  0  0  0
    3.9718   -0.1657   -0.2873 C   0  0  0  0  0  0  0  0  0  0  0  0
    5.3795    1.4038    0.1716 H   0  0  0  0  0  0  0  0  0  0  0  0
    5.6190   -1.2358    1.7047 H   0  0  0  0  0  0  0  0  0  0  0  0
    6.0964    0.3772    2.2588 H   0  0  0  0  0  0  0  0  0  0  0  0
    3.7787    1.0936    2.4221 H   0  0  0  0  0  0  0  0  0  0  0  0
    3.6387   -0.6134    2.9117 H   0  0  0  0  0  0  0  0  0  0  0  0
    1.6586   -0.5448   -1.1750 H   0  0  0  0  0  0  0  0  0  0  0  0
   -0.9170    0.3816   -0.1119 H   0  0  0  0  0  0  0  0  0  0  0  0
   -0.1353    4.3250   -2.4538 H   0  0  0  0  0  0  0  0  0  0  0  0
   -2.5380    5.1133   -2.3041 H   0  0  0  0  0  0  0  0  0  0  0  0
   -5.8554    2.4102   -0.1308 H   0  0  0  0  0  0  0  0  0  0  0  0
   -5.7126    0.2775    1.1027 H   0  0  0  0  0  0  0  0  0  0  0  0
   -2.8164   -0.1600    2.1459 H   0  0  0  0  0  0  0  0  0  0  0  0
   -4.3519   -0.6849    2.9461 H   0  0  0  0  0  0  0  0  0  0  0  0
   -4.9856   -2.0595    0.9710 H   0  0  0  0  0  0  0  0  0  0  0  0
   -2.5597   -1.0736   -0.6091 H   0  0  0  0  0  0  0  0  0  0  0  0
   -3.7331   -2.3060   -0.9930 H   0  0  0  0  0  0  0  0  0  0  0  0
   -0.9428   -1.2370    1.3798 H   0  0  0  0  0  0  0  0  0  0  0  0
   -0.0688   -2.7251    1.6519 H   0  0  0  0  0  0  0  0  0  0  0  0
   -0.9051   -3.1577   -1.8528 H   0  0  0  0  0  0  0  0  0  0  0  0
    0.2772   -2.0020   -2.5658 H   0  0  0  0  0  0  0  0  0  0  0  0
    0.8585   -4.0991   -0.3628 H   0  0  0  0  0  0  0  0  0  0  0  0
    2.0760   -2.9898   -1.1167 H   0  0  0  0  0  0  0  0  0  0  0  0
    3.9844   -1.1861   -0.6877 H   0  0  0  0  0  0  0  0  0  0  0  0
    3.5588    0.5044   -1.0459 H   0  0  0  0  0  0  0  0  0  0  0  0
  1  2  3  0
  2  3  1  0
  3  4  1  0
  4  5  1  0
  5  6  1  0
  6  7  1  0
  7  8  2  0
  7  9  1  0
  9 10  1  0
 10 11  1  0
 11 12  2  0
 11 13  1  0
 13 14  2  0
 14 15  1  0
 15 16  1  0
 16 17  2  0
 17 18  1  0
 18 19  2  0
 19 20  1  0
 20 21  2  0
 19 22  1  0
 22 23  1  0
 23 24  1  0
 24 25  1  0
 25 26  1  0
 26 27  1  0
 27 28  1  0
 28 29  1  0
 29 30  1  0
  6 31  1  0
 31  3  1  0
 28  9  1  0
 21 13  1  0
 24 22  1  0
 30 28  1  0
 21 16  1  0
  3 32  1  1
  4 33  1  0
  4 34  1  0
  5 35  1  0
  5 36  1  0
  9 37  1  6
 10 38  1  0
 14 39  1  0
 15 40  1  0
 18 41  1  0
 22 42  1  0
 23 43  1  0
 23 44  1  0
 24 45  1  0
 25 46  1  0
 25 47  1  0
 27 48  1  0
 27 49  1  0
 29 50  1  0
 29 51  1  0
 30 52  1  0
 30 53  1  0
 31 54  1  0
 31 55  1  0
M  END
>  <candidate_id>  (1) 
CAND_38de1fc846

>  <source_generator>  (1) 
v5_3_model_guided_macrocycle

>  <parent_mol_id>  (1) 
JAK2_69b6c7ad6e

>  <canonical_smiles>  (1) 
N#C[C@@H]1CCN(C(=O)[C@@H]2NC(=O)c3c[nH]c4ncc(nc34)C3CC3CSCC23CC3)C1

>  <inchikey>  (1) 
YLWJLPCJNFQMCO-YGFYOVKCSA-N

>  <valid_rdkit>  (1) 
True

>  <unique_flag>  (1) 
True

>  <novel_flag>  (1) 
True

>  <mw>  (1) 
436.541

>  <logp>  (1) 
2.0589

>  <tpsa>  (1) 
114.77

>  <hbd>  (1) 
2

>  <hba>  (1) 
6

>  <rotatable_bonds>  (1) 
1

>  <qed>  (1) 
0.7072

>  <sa_score>  (1) 
5.006

>  <murcko_scaffold>  (1) 
O=C1N[C@@H](C(=O)N2CCCC2)C2(CC2)CSCC2CC2c2cnc3[nH]cc1c3n2

>  <max_ring_size>  (1) 
13

>  <has_macrocycle_12_20>  (1) 
True

>  <has_constrained_ring_8_11>  (1) 
False

>  <passes_basic_filters>  (1) 
True

>  <generation_notes>  (1) 
v5_3_model_guided_anchor_pair=24-20;anchor_scores=0.691,0.079;linker_length=3;target_ring=12;linker_prob=0.278;chemotype=thioether

$$$$
