CAND_b7ff913a58
     RDKit          3D

 63 68  0  0  0  0  0  0  0  0999 V2000
    2.7087    6.1406   -1.2254 N   0  0  0  0  0  0  0  0  0  0  0  0
    2.3080    5.1011   -0.9020 C   0  0  0  0  0  0  0  0  0  0  0  0
    1.8126    3.7995   -0.4913 C   0  0  0  0  0  0  0  0  0  0  0  0
    0.9740    3.9050    0.8092 C   0  0  0  0  0  0  0  0  0  0  0  0
   -0.5458    3.8994    0.5842 C   0  0  0  0  0  0  0  0  0  0  0  0
   -1.1227    2.4920    0.7925 C   0  0  0  0  0  0  0  0  0  0  0  0
   -2.5981    2.3752    0.3998 C   0  0  0  0  0  0  0  0  0  0  0  0
   -3.2166    1.0219    0.7988 C   0  0  0  0  0  0  0  0  0  0  0  0
   -2.5757   -0.1728    0.0835 C   0  0  0  0  0  0  0  0  0  0  0  0
   -2.9816   -1.5817    0.5365 C   0  0  0  0  0  0  0  0  0  0  0  0
   -4.3233   -1.8302    1.2082 C   0  0  0  0  0  0  0  0  0  0  0  0
   -3.0714   -1.8716    2.0321 C   0  0  0  0  0  0  0  0  0  0  0  0
   -2.2928   -2.6761   -0.2979 C   0  0  0  0  0  0  0  0  0  0  0  0
   -2.9915   -3.6699   -1.0009 C   0  0  0  0  0  0  0  0  0  0  0  0
   -2.4366   -4.6460   -1.7777 N   0  0  0  0  0  0  0  0  0  0  0  0
   -1.0989   -4.4972   -1.8366 C   0  0  0  0  0  0  0  0  0  0  0  0
   -0.2249   -5.2525   -2.5677 N   0  0  0  0  0  0  0  0  0  0  0  0
    1.0458   -4.7379   -2.4447 C   0  0  0  0  0  0  0  0  0  0  0  0
    0.9965   -3.6373   -1.5988 C   0  0  0  0  0  0  0  0  0  0  0  0
   -0.3590   -3.5237   -1.1846 C   0  0  0  0  0  0  0  0  0  0  0  0
   -0.9380   -2.6146   -0.3580 N   0  0  0  0  0  0  0  0  0  0  0  0
    2.1002   -2.7375   -1.2809 C   0  0  0  0  0  0  0  0  0  0  0  0
    3.2089   -2.8329   -1.7964 O   0  0  0  0  0  0  0  0  0  0  0  0
    1.7649   -1.7519   -0.3878 N   0  0  0  0  0  0  0  0  0  0  0  0
    2.4850   -0.4948   -0.2699 C   0  0  2  0  0  0  0  0  0  0  0  0
    2.5350   -0.1585    1.2018 C   0  0  0  0  0  0  0  0  0  0  0  0
    3.8424    0.1747    1.8864 C   0  0  0  0  0  0  0  0  0  0  0  0
    3.1709   -1.1331    2.1721 C   0  0  0  0  0  0  0  0  0  0  0  0
    1.6736    0.5216   -1.1204 C   0  0  0  0  0  0  0  0  0  0  0  0
    0.7320    0.1680   -1.8409 O   0  0  0  0  0  0  0  0  0  0  0  0
    2.0042    1.8424   -1.0770 N   0  0  0  0  0  0  0  0  0  0  0  0
    1.2981    2.9518   -1.6955 C   0  0  0  0  0  0  0  0  0  0  0  0
    2.9325    2.7050   -0.3817 C   0  0  0  0  0  0  0  0  0  0  0  0
    1.2357    3.0971    1.5047 H   0  0  0  0  0  0  0  0  0  0  0  0
    1.2419    4.8279    1.3420 H   0  0  0  0  0  0  0  0  0  0  0  0
   -0.8073    4.2968   -0.4021 H   0  0  0  0  0  0  0  0  0  0  0  0
   -1.0122    4.5631    1.3232 H   0  0  0  0  0  0  0  0  0  0  0  0
   -1.0041    2.2134    1.8473 H   0  0  0  0  0  0  0  0  0  0  0  0
   -0.5377    1.7770    0.2116 H   0  0  0  0  0  0  0  0  0  0  0  0
   -2.7057    2.5261   -0.6809 H   0  0  0  0  0  0  0  0  0  0  0  0
   -3.1676    3.1724    0.8927 H   0  0  0  0  0  0  0  0  0  0  0  0
   -3.1353    0.9164    1.8853 H   0  0  0  0  0  0  0  0  0  0  0  0
   -4.2872    1.0508    0.5646 H   0  0  0  0  0  0  0  0  0  0  0  0
   -1.4889   -0.1123    0.2000 H   0  0  0  0  0  0  0  0  0  0  0  0
   -2.7833   -0.0819   -0.9907 H   0  0  0  0  0  0  0  0  0  0  0  0
   -4.8434   -2.7697    1.0580 H   0  0  0  0  0  0  0  0  0  0  0  0
   -5.0041   -1.0017    1.3653 H   0  0  0  0  0  0  0  0  0  0  0  0
   -2.7327   -2.8387    2.3923 H   0  0  0  0  0  0  0  0  0  0  0  0
   -2.8922   -1.0759    2.7438 H   0  0  0  0  0  0  0  0  0  0  0  0
   -4.0760   -3.7064   -0.9608 H   0  0  0  0  0  0  0  0  0  0  0  0
   -0.5012   -6.0327   -3.1463 H   0  0  0  0  0  0  0  0  0  0  0  0
    1.8748   -5.1699   -2.9909 H   0  0  0  0  0  0  0  0  0  0  0  0
    0.7998   -1.7469   -0.0631 H   0  0  0  0  0  0  0  0  0  0  0  0
    3.4846   -0.5848   -0.7086 H   0  0  0  0  0  0  0  0  0  0  0  0
    1.6281    0.3282    1.5458 H   0  0  0  0  0  0  0  0  0  0  0  0
    3.8344    0.9235    2.6707 H   0  0  0  0  0  0  0  0  0  0  0  0
    4.7605    0.1487    1.3095 H   0  0  0  0  0  0  0  0  0  0  0  0
    3.6292   -2.0350    1.7791 H   0  0  0  0  0  0  0  0  0  0  0  0
    2.6973   -1.2672    3.1381 H   0  0  0  0  0  0  0  0  0  0  0  0
    1.7102    3.1978   -2.6815 H   0  0  0  0  0  0  0  0  0  0  0  0
    0.2195    2.8150   -1.7900 H   0  0  0  0  0  0  0  0  0  0  0  0
    3.8472    2.8779   -0.9598 H   0  0  0  0  0  0  0  0  0  0  0  0
    3.1993    2.4128    0.6323 H   0  0  0  0  0  0  0  0  0  0  0  0
  1  2  3  0
  2  3  1  0
  3  4  1  0
  4  5  1  0
  5  6  1  0
  6  7  1  0
  7  8  1  0
  8  9  1  0
  9 10  1  0
 10 11  1  0
 11 12  1  0
 10 13  1  0
 13 14  2  0
 14 15  1  0
 15 16  2  0
 16 17  1  0
 17 18  1  0
 18 19  2  0
 19 20  1  0
 20 21  2  0
 19 22  1  0
 22 23  2  0
 22 24  1  0
 24 25  1  0
 25 26  1  0
 26 27  1  0
 27 28  1  0
 25 29  1  0
 29 30  2  0
 29 31  1  0
 31 32  1  0
 31 33  1  0
 32  3  1  0
 33  3  1  0
 12 10  1  0
 21 13  1  0
 28 26  1  0
 20 16  1  0
  4 34  1  0
  4 35  1  0
  5 36  1  0
  5 37  1  0
  6 38  1  0
  6 39  1  0
  7 40  1  0
  7 41  1  0
  8 42  1  0
  8 43  1  0
  9 44  1  0
  9 45  1  0
 11 46  1  0
 11 47  1  0
 12 48  1  0
 12 49  1  0
 14 50  1  0
 17 51  1  0
 18 52  1  0
 24 53  1  0
 25 54  1  6
 26 55  1  0
 27 56  1  0
 27 57  1  0
 28 58  1  0
 28 59  1  0
 32 60  1  0
 32 61  1  0
 33 62  1  0
 33 63  1  0
M  END
>  <candidate_id>  (1) 
CAND_b7ff913a58

>  <source_generator>  (1) 
v5_3_model_guided_macrocycle

>  <parent_mol_id>  (1) 
JAK2_c385760536

>  <canonical_smiles>  (1) 
N#CC12CCCCCCC3(CC3)c3cnc4[nH]cc(c4n3)C(=O)N[C@H](C3CC3)C(=O)N(C1)C2

>  <inchikey>  (1) 
JSANKVNBIUHLQY-LJQANCHMSA-N

>  <valid_rdkit>  (1) 
True

>  <unique_flag>  (1) 
True

>  <novel_flag>  (1) 
True

>  <mw>  (1) 
446.555

>  <logp>  (1) 
3.2043

>  <tpsa>  (1) 
114.77

>  <hbd>  (1) 
2

>  <hba>  (1) 
5

>  <rotatable_bonds>  (1) 
1

>  <qed>  (1) 
0.698

>  <sa_score>  (1) 
4.311

>  <murcko_scaffold>  (1) 
O=C1N[C@H](C2CC2)C(=O)N2CC(CCCCCCC3(CC3)c3cnc4[nH]cc1c4n3)C2

>  <max_ring_size>  (1) 
18

>  <has_macrocycle_12_20>  (1) 
True

>  <has_constrained_ring_8_11>  (1) 
False

>  <passes_basic_filters>  (1) 
True

>  <generation_notes>  (1) 
v5_3_model_guided_anchor_pair=2-18;anchor_scores=0.691,0.691;linker_length=6;target_ring=17;linker_prob=0.209;chemotype=alkyl

$$$$
