CAND_28874e6ca5
     RDKit          3D

 77 82  0  0  0  0  0  0  0  0999 V2000
    7.6584   -0.0407    0.1740 C   0  0  0  0  0  0  0  0  0  0  0  0
    6.4548   -0.9091    0.3411 C   0  0  0  0  0  0  0  0  0  0  0  0
    6.6067   -2.2676    0.5576 C   0  0  0  0  0  0  0  0  0  0  0  0
    5.5920   -3.1494    0.6658 N   0  0  0  0  0  0  0  0  0  0  0  0
    4.3570   -2.6490    0.5655 C   0  0  0  0  0  0  0  0  0  0  0  0
    4.1184   -1.3454    0.3998 N   0  0  0  0  0  0  0  0  0  0  0  0
    5.1415   -0.4724    0.2978 C   0  0  0  0  0  0  0  0  0  0  0  0
    4.6847    0.9234    0.1062 C   0  0  0  0  0  0  0  0  0  0  0  0
    5.2534    2.0140    0.7814 C   0  0  0  0  0  0  0  0  0  0  0  0
    4.7630    3.3127    0.6028 C   0  0  0  0  0  0  0  0  0  0  0  0
    3.6793    3.5473   -0.2436 C   0  0  0  0  0  0  0  0  0  0  0  0
    3.0740    2.4869   -0.9233 C   0  0  0  0  0  0  0  0  0  0  0  0
    3.5815    1.1904   -0.7352 C   0  0  0  0  0  0  0  0  0  0  0  0
    1.8699    2.7164   -1.8027 C   0  0  0  0  0  0  0  0  0  0  0  0
    0.7458    3.0198   -0.9792 O   0  0  0  0  0  0  0  0  0  0  0  0
   -0.4568    2.4137   -1.4441 C   0  0  0  0  0  0  0  0  0  0  0  0
   -1.5434    2.5673   -0.4003 C   0  0  0  0  0  0  0  0  0  0  0  0
   -1.3531    2.3185    0.9160 C   0  0  0  0  0  0  0  0  0  0  0  0
   -0.1211    1.7338    1.5492 C   0  0  0  0  0  0  0  0  0  0  0  0
    0.2873    0.5290    0.9073 O   0  0  0  0  0  0  0  0  0  0  0  0
   -0.6137   -0.5624    1.1251 C   0  0  0  0  0  0  0  0  0  0  0  0
   -0.0169   -1.8335    0.5716 C   0  0  0  0  0  0  0  0  0  0  0  0
    1.3184   -2.1539    0.8689 C   0  0  0  0  0  0  0  0  0  0  0  0
    1.9270   -3.3314    0.4151 C   0  0  0  0  0  0  0  0  0  0  0  0
    1.1447   -4.2320   -0.3149 C   0  0  0  0  0  0  0  0  0  0  0  0
   -0.1849   -3.9328   -0.6320 C   0  0  0  0  0  0  0  0  0  0  0  0
   -0.7552   -2.7352   -0.1987 C   0  0  0  0  0  0  0  0  0  0  0  0
   -1.9900   -2.3801   -0.6641 O   0  0  0  0  0  0  0  0  0  0  0  0
   -3.0527   -2.9993    0.0586 C   0  0  0  0  0  0  0  0  0  0  0  0
   -4.3322   -2.1643   -0.1446 C   0  0  0  0  0  0  0  0  0  0  0  0
   -4.2931   -0.9446    0.6905 N   0  0  0  0  0  0  0  0  0  0  0  0
   -5.3790   -0.9319    1.6857 C   0  0  0  0  0  0  0  0  0  0  0  0
   -6.5703   -0.2826    0.9910 C   0  0  0  0  0  0  0  0  0  0  0  0
   -5.9793    0.4802   -0.1941 C   0  0  0  0  0  0  0  0  0  0  0  0
   -4.4629    0.3426   -0.0305 C   0  0  0  0  0  0  0  0  0  0  0  0
   -3.6784    0.5420   -1.3427 C   0  0  0  0  0  0  0  0  0  0  0  0
   -3.6054    1.9989   -1.8396 C   0  0  0  0  0  0  0  0  0  0  0  0
   -2.9073    3.0014   -0.9020 C   0  0  0  0  0  0  0  0  0  0  0  0
    3.3019   -3.5608    0.5529 N   0  0  0  0  0  0  0  0  0  0  0  0
    7.9281    0.4308    1.1237 H   0  0  0  0  0  0  0  0  0  0  0  0
    7.4897    0.7303   -0.5835 H   0  0  0  0  0  0  0  0  0  0  0  0
    8.5193   -0.6252   -0.1699 H   0  0  0  0  0  0  0  0  0  0  0  0
    7.5937   -2.7148    0.6381 H   0  0  0  0  0  0  0  0  0  0  0  0
    6.0653    1.8658    1.4881 H   0  0  0  0  0  0  0  0  0  0  0  0
    5.2130    4.1408    1.1460 H   0  0  0  0  0  0  0  0  0  0  0  0
    3.2854    4.5554   -0.3492 H   0  0  0  0  0  0  0  0  0  0  0  0
    3.0843    0.3544   -1.2298 H   0  0  0  0  0  0  0  0  0  0  0  0
    1.6923    1.8379   -2.4402 H   0  0  0  0  0  0  0  0  0  0  0  0
    2.0552    3.5695   -2.4689 H   0  0  0  0  0  0  0  0  0  0  0  0
   -0.7422    2.9169   -2.3724 H   0  0  0  0  0  0  0  0  0  0  0  0
   -0.3090    1.3479   -1.6553 H   0  0  0  0  0  0  0  0  0  0  0  0
   -2.1746    2.4806    1.6105 H   0  0  0  0  0  0  0  0  0  0  0  0
    0.7041    2.4525    1.5081 H   0  0  0  0  0  0  0  0  0  0  0  0
   -0.3044    1.5364    2.6138 H   0  0  0  0  0  0  0  0  0  0  0  0
   -1.5698   -0.3345    0.6369 H   0  0  0  0  0  0  0  0  0  0  0  0
   -0.7974   -0.7018    2.2064 H   0  0  0  0  0  0  0  0  0  0  0  0
    1.8949   -1.4377    1.4507 H   0  0  0  0  0  0  0  0  0  0  0  0
    1.5840   -5.1473   -0.7016 H   0  0  0  0  0  0  0  0  0  0  0  0
   -0.7537   -4.6119   -1.2582 H   0  0  0  0  0  0  0  0  0  0  0  0
   -3.2127   -3.9978   -0.3560 H   0  0  0  0  0  0  0  0  0  0  0  0
   -2.8207   -3.0989    1.1264 H   0  0  0  0  0  0  0  0  0  0  0  0
   -5.1954   -2.7928    0.1135 H   0  0  0  0  0  0  0  0  0  0  0  0
   -4.4443   -1.9365   -1.2117 H   0  0  0  0  0  0  0  0  0  0  0  0
   -5.0649   -0.3127    2.5355 H   0  0  0  0  0  0  0  0  0  0  0  0
   -5.6155   -1.9185    2.0981 H   0  0  0  0  0  0  0  0  0  0  0  0
   -7.1087    0.3869    1.6737 H   0  0  0  0  0  0  0  0  0  0  0  0
   -7.2779   -1.0416    0.6349 H   0  0  0  0  0  0  0  0  0  0  0  0
   -6.2953    1.5302   -0.1904 H   0  0  0  0  0  0  0  0  0  0  0  0
   -6.3258    0.0284   -1.1322 H   0  0  0  0  0  0  0  0  0  0  0  0
   -4.1337    1.1132    0.6783 H   0  0  0  0  0  0  0  0  0  0  0  0
   -2.6573    0.1609   -1.2329 H   0  0  0  0  0  0  0  0  0  0  0  0
   -4.1338   -0.0496   -2.1494 H   0  0  0  0  0  0  0  0  0  0  0  0
   -4.6204    2.3661   -2.0490 H   0  0  0  0  0  0  0  0  0  0  0  0
   -3.0805    1.9954   -2.8071 H   0  0  0  0  0  0  0  0  0  0  0  0
   -3.5757    3.2106   -0.0578 H   0  0  0  0  0  0  0  0  0  0  0  0
   -2.7998    3.9595   -1.4234 H   0  0  0  0  0  0  0  0  0  0  0  0
    3.6402   -4.5085    0.5238 H   0  0  0  0  0  0  0  0  0  0  0  0
  1  2  1  0
  2  3  2  0
  3  4  1  0
  4  5  2  0
  5  6  1  0
  6  7  2  0
  7  8  1  0
  8  9  2  0
  9 10  1  0
 10 11  2  0
 11 12  1  0
 12 13  2  0
 12 14  1  0
 14 15  1  0
 15 16  1  0
 16 17  1  0
 17 18  2  3
 18 19  1  0
 19 20  1  0
 20 21  1  0
 21 22  1  0
 22 23  2  0
 23 24  1  0
 24 25  2  0
 25 26  1  0
 26 27  2  0
 27 28  1  0
 28 29  1  0
 29 30  1  0
 30 31  1  0
 31 32  1  0
 32 33  1  0
 33 34  1  0
 34 35  1  0
 35 36  1  0
 36 37  1  0
 37 38  1  0
 24 39  1  0
  7  2  1  0
 13  8  1  0
 38 17  1  0
 39  5  1  0
 27 22  1  0
 35 31  1  0
  1 40  1  0
  1 41  1  0
  1 42  1  0
  3 43  1  0
  9 44  1  0
 10 45  1  0
 11 46  1  0
 13 47  1  0
 14 48  1  0
 14 49  1  0
 16 50  1  0
 16 51  1  0
 18 52  1  0
 19 53  1  0
 19 54  1  0
 21 55  1  0
 21 56  1  0
 23 57  1  0
 25 58  1  0
 26 59  1  0
 29 60  1  0
 29 61  1  0
 30 62  1  0
 30 63  1  0
 32 64  1  0
 32 65  1  0
 33 66  1  0
 33 67  1  0
 34 68  1  0
 34 69  1  0
 35 70  1  0
 36 71  1  0
 36 72  1  0
 37 73  1  0
 37 74  1  0
 38 75  1  0
 38 76  1  0
 39 77  1  0
M  END
>  <candidate_id>  (1) 
CAND_28874e6ca5

>  <source_generator>  (1) 
v5_3_model_guided_macrocycle

>  <parent_mol_id>  (1) 
JAK2_5e05d7987e

>  <canonical_smiles>  (1) 
Cc1cnc2nc1-c1cccc(c1)COCC1=CCOCc3cc(ccc3OCCN3CCCC3CCC1)N2

>  <inchikey>  (1) 
OFILVOZDPMYRJM-UHFFFAOYSA-N

>  <valid_rdkit>  (1) 
True

>  <unique_flag>  (1) 
True

>  <novel_flag>  (1) 
True

>  <mw>  (1) 
526.681

>  <logp>  (1) 
6.1959

>  <tpsa>  (1) 
68.74

>  <hbd>  (1) 
1

>  <hba>  (1) 
7

>  <rotatable_bonds>  (1) 
0

>  <qed>  (1) 
0.3501

>  <sa_score>  (1) 
5.23

>  <murcko_scaffold>  (1) 
C1=C2CCCC3CCCN3CCOc3ccc(cc3COC1)Nc1nccc(n1)-c1cccc(c1)COC2

>  <max_ring_size>  (1) 
18

>  <has_macrocycle_12_20>  (1) 
True

>  <has_constrained_ring_8_11>  (1) 
False

>  <passes_basic_filters>  (1) 
True

>  <generation_notes>  (1) 
v5_3_model_guided_anchor_pair=16-31;anchor_scores=0.312,0.079;linker_length=3;target_ring=14;linker_prob=0.523;chemotype=alkyl

$$$$
