CAND_1f4eb01ec0
     RDKit          3D

 77 82  0  0  0  0  0  0  0  0999 V2000
    7.5967    1.0367    0.3213 C   0  0  0  0  0  0  0  0  0  0  0  0
    6.2518    1.6845    0.2781 C   0  0  0  0  0  0  0  0  0  0  0  0
    6.1193    3.0465    0.4268 C   0  0  0  0  0  0  0  0  0  0  0  0
    4.9413    3.6936    0.4197 N   0  0  0  0  0  0  0  0  0  0  0  0
    3.8340    2.9545    0.2489 C   0  0  0  0  0  0  0  0  0  0  0  0
    3.8586    1.6301    0.0677 N   0  0  0  0  0  0  0  0  0  0  0  0
    5.0591    1.0052    0.0778 C   0  0  0  0  0  0  0  0  0  0  0  0
    4.9840   -0.4512   -0.1126 C   0  0  0  0  0  0  0  0  0  0  0  0
    5.5933   -1.0777   -1.2119 C   0  0  0  0  0  0  0  0  0  0  0  0
    5.5420   -2.4637   -1.3677 C   0  0  0  0  0  0  0  0  0  0  0  0
    4.8704   -3.2464   -0.4307 C   0  0  0  0  0  0  0  0  0  0  0  0
    4.2307   -2.6495    0.6630 C   0  0  0  0  0  0  0  0  0  0  0  0
    4.2929   -1.2548    0.8105 C   0  0  0  0  0  0  0  0  0  0  0  0
    3.4771   -3.4928    1.6643 C   0  0  0  0  0  0  0  0  0  0  0  0
    2.1105   -3.1117    1.8239 O   0  0  0  0  0  0  0  0  0  0  0  0
    1.3665   -3.1900    0.6097 C   0  0  0  0  0  0  0  0  0  0  0  0
   -0.0689   -3.4462    0.9527 C   0  0  0  0  0  0  0  0  0  0  0  0
   -1.1536   -2.8385    0.4219 C   0  0  0  0  0  0  0  0  0  0  0  0
   -2.5445   -3.2941    0.8368 C   0  0  0  0  0  0  0  0  0  0  0  0
   -3.5478   -2.1887    1.1994 C   0  0  0  0  0  0  0  0  0  0  0  0
   -4.5699   -1.9443    0.0762 C   0  0  0  0  0  0  0  0  0  0  0  0
   -5.5210   -0.7742    0.3717 C   0  0  0  0  0  0  0  0  0  0  0  0
   -6.6257   -0.6688   -0.6914 C   0  0  0  0  0  0  0  0  0  0  0  0
   -6.6024    0.7835   -1.1444 C   0  0  0  0  0  0  0  0  0  0  0  0
   -5.1890    1.1329   -1.0000 N   0  0  0  0  0  0  0  0  0  0  0  0
   -4.9608    2.5861   -1.0954 C   0  0  0  0  0  0  0  0  0  0  0  0
   -3.4727    2.9841   -1.1826 C   0  0  0  0  0  0  0  0  0  0  0  0
   -2.8192    2.6509    0.0464 O   0  0  0  0  0  0  0  0  0  0  0  0
   -1.4715    2.8641   -0.0040 C   0  0  0  0  0  0  0  0  0  0  0  0
   -1.0128    4.0802    0.4960 C   0  0  0  0  0  0  0  0  0  0  0  0
    0.3561    4.3308    0.5688 C   0  0  0  0  0  0  0  0  0  0  0  0
    1.2952    3.3656    0.1752 C   0  0  0  0  0  0  0  0  0  0  0  0
    0.8121    2.1371   -0.2957 C   0  0  0  0  0  0  0  0  0  0  0  0
   -0.5716    1.8717   -0.4121 C   0  0  0  0  0  0  0  0  0  0  0  0
   -1.0148    0.5471   -0.9849 C   0  0  0  0  0  0  0  0  0  0  0  0
   -0.9060   -0.5021   -0.0258 O   0  0  0  0  0  0  0  0  0  0  0  0
   -1.0521   -1.7777   -0.6465 C   0  0  0  0  0  0  0  0  0  0  0  0
    2.6498    3.6786    0.3145 N   0  0  0  0  0  0  0  0  0  0  0  0
   -4.8221    0.5878    0.3169 C   0  0  0  0  0  0  0  0  0  0  0  0
    8.3393    1.6990    0.7801 H   0  0  0  0  0  0  0  0  0  0  0  0
    7.9389    0.7983   -0.6903 H   0  0  0  0  0  0  0  0  0  0  0  0
    7.5753    0.1230    0.9240 H   0  0  0  0  0  0  0  0  0  0  0  0
    6.9845    3.6876    0.5741 H   0  0  0  0  0  0  0  0  0  0  0  0
    6.1080   -0.4822   -1.9630 H   0  0  0  0  0  0  0  0  0  0  0  0
    6.0213   -2.9315   -2.2239 H   0  0  0  0  0  0  0  0  0  0  0  0
    4.8365   -4.3249   -0.5685 H   0  0  0  0  0  0  0  0  0  0  0  0
    3.7830   -0.7847    1.6525 H   0  0  0  0  0  0  0  0  0  0  0  0
    3.5176   -4.5569    1.4013 H   0  0  0  0  0  0  0  0  0  0  0  0
    3.9643   -3.3943    2.6410 H   0  0  0  0  0  0  0  0  0  0  0  0
    1.5058   -2.2570    0.0580 H   0  0  0  0  0  0  0  0  0  0  0  0
    1.7181   -4.0280   -0.0043 H   0  0  0  0  0  0  0  0  0  0  0  0
   -0.2121   -4.2241    1.7000 H   0  0  0  0  0  0  0  0  0  0  0  0
   -2.4585   -3.9515    1.7126 H   0  0  0  0  0  0  0  0  0  0  0  0
   -2.9503   -3.9241    0.0348 H   0  0  0  0  0  0  0  0  0  0  0  0
   -3.0241   -1.2711    1.4831 H   0  0  0  0  0  0  0  0  0  0  0  0
   -4.1060   -2.5061    2.0899 H   0  0  0  0  0  0  0  0  0  0  0  0
   -4.0583   -1.7645   -0.8749 H   0  0  0  0  0  0  0  0  0  0  0  0
   -5.1622   -2.8591   -0.0562 H   0  0  0  0  0  0  0  0  0  0  0  0
   -5.9749   -0.9181    1.3601 H   0  0  0  0  0  0  0  0  0  0  0  0
   -6.4253   -1.3316   -1.5422 H   0  0  0  0  0  0  0  0  0  0  0  0
   -7.6037   -0.9422   -0.2816 H   0  0  0  0  0  0  0  0  0  0  0  0
   -6.9504    0.8864   -2.1770 H   0  0  0  0  0  0  0  0  0  0  0  0
   -7.2429    1.3931   -0.4941 H   0  0  0  0  0  0  0  0  0  0  0  0
   -5.4441    2.9556   -2.0085 H   0  0  0  0  0  0  0  0  0  0  0  0
   -5.4285    3.1025   -0.2472 H   0  0  0  0  0  0  0  0  0  0  0  0
   -3.4090    4.0680   -1.3410 H   0  0  0  0  0  0  0  0  0  0  0  0
   -3.0032    2.4836   -2.0378 H   0  0  0  0  0  0  0  0  0  0  0  0
   -1.7199    4.8259    0.8468 H   0  0  0  0  0  0  0  0  0  0  0  0
    0.6869    5.2866    0.9673 H   0  0  0  0  0  0  0  0  0  0  0  0
    1.5117    1.3581   -0.5908 H   0  0  0  0  0  0  0  0  0  0  0  0
   -0.3873    0.3243   -1.8583 H   0  0  0  0  0  0  0  0  0  0  0  0
   -2.0468    0.5874   -1.3430 H   0  0  0  0  0  0  0  0  0  0  0  0
   -0.1938   -1.9600   -1.3034 H   0  0  0  0  0  0  0  0  0  0  0  0
   -1.9367   -1.7985   -1.2904 H   0  0  0  0  0  0  0  0  0  0  0  0
    2.8764    4.6388    0.5261 H   0  0  0  0  0  0  0  0  0  0  0  0
   -3.7426    0.4931    0.4320 H   0  0  0  0  0  0  0  0  0  0  0  0
   -5.2023    1.2203    1.1298 H   0  0  0  0  0  0  0  0  0  0  0  0
  1  2  1  0
  2  3  2  0
  3  4  1  0
  4  5  2  0
  5  6  1  0
  6  7  2  0
  7  8  1  0
  8  9  2  0
  9 10  1  0
 10 11  2  0
 11 12  1  0
 12 13  2  0
 12 14  1  0
 14 15  1  0
 15 16  1  0
 16 17  1  0
 17 18  2  3
 18 19  1  0
 19 20  1  0
 20 21  1  0
 21 22  1  0
 22 23  1  0
 23 24  1  0
 24 25  1  0
 25 26  1  0
 26 27  1  0
 27 28  1  0
 28 29  1  0
 29 30  2  0
 30 31  1  0
 31 32  2  0
 32 33  1  0
 33 34  2  0
 34 35  1  0
 35 36  1  0
 36 37  1  0
 32 38  1  0
 25 39  1  0
  7  2  1  0
 13  8  1  0
 37 18  1  0
 38  5  1  0
 39 22  1  0
 34 29  1  0
  1 40  1  0
  1 41  1  0
  1 42  1  0
  3 43  1  0
  9 44  1  0
 10 45  1  0
 11 46  1  0
 13 47  1  0
 14 48  1  0
 14 49  1  0
 16 50  1  0
 16 51  1  0
 17 52  1  0
 19 53  1  0
 19 54  1  0
 20 55  1  0
 20 56  1  0
 21 57  1  0
 21 58  1  0
 22 59  1  0
 23 60  1  0
 23 61  1  0
 24 62  1  0
 24 63  1  0
 26 64  1  0
 26 65  1  0
 27 66  1  0
 27 67  1  0
 30 68  1  0
 31 69  1  0
 33 70  1  0
 35 71  1  0
 35 72  1  0
 37 73  1  0
 37 74  1  0
 38 75  1  0
 39 76  1  0
 39 77  1  0
M  END
>  <candidate_id>  (1) 
CAND_1f4eb01ec0

>  <source_generator>  (1) 
v5_3_model_guided_macrocycle

>  <parent_mol_id>  (1) 
JAK2_5e05d7987e

>  <canonical_smiles>  (1) 
Cc1cnc2nc1-c1cccc(c1)COCC=C1CCCC3CCN(CCOc4ccc(cc4COC1)N2)C3

>  <inchikey>  (1) 
LWSUEXVCXQIKQW-UHFFFAOYSA-N

>  <valid_rdkit>  (1) 
True

>  <unique_flag>  (1) 
True

>  <novel_flag>  (1) 
True

>  <mw>  (1) 
526.681

>  <logp>  (1) 
6.0534

>  <tpsa>  (1) 
68.74

>  <hbd>  (1) 
1

>  <hba>  (1) 
7

>  <rotatable_bonds>  (1) 
0

>  <qed>  (1) 
0.3576

>  <sa_score>  (1) 
5.408

>  <murcko_scaffold>  (1) 
C1=C2CCCC3CCN(CCOc4ccc(cc4COC2)Nc2nccc(n2)-c2cccc(c2)COC1)C3

>  <max_ring_size>  (1) 
18

>  <has_macrocycle_12_20>  (1) 
True

>  <has_constrained_ring_8_11>  (1) 
False

>  <passes_basic_filters>  (1) 
True

>  <generation_notes>  (1) 
v5_3_model_guided_anchor_pair=17-32;anchor_scores=0.312,0.079;linker_length=3;target_ring=14;linker_prob=0.523;chemotype=oxa_aza

$$$$
