CAND_d7295004a0
     RDKit          3D

 56 61  0  0  0  0  0  0  0  0999 V2000
    6.4931    2.8556    0.2490 N   0  0  0  0  0  0  0  0  0  0  0  0
    6.2813    1.7762    0.6182 C   0  0  0  0  0  0  0  0  0  0  0  0
    6.0672    0.3975    1.0837 C   0  0  2  0  0  0  0  0  0  0  0  0
    5.8521   -0.5655   -0.0863 C   0  0  0  0  0  0  0  0  0  0  0  0
    4.3582   -0.4691   -0.3709 C   0  0  0  0  0  0  0  0  0  0  0  0
    3.7665   -0.1668    0.9194 N   0  0  0  0  0  0  0  0  0  0  0  0
    2.4266   -0.1755    1.2544 C   0  0  0  0  0  0  0  0  0  0  0  0
    2.0661    0.1133    2.4008 O   0  0  0  0  0  0  0  0  0  0  0  0
    1.3980   -0.5718    0.1577 C   0  0  2  0  0  0  0  0  0  0  0  0
    0.4235    0.4865    0.0183 N   0  0  0  0  0  0  0  0  0  0  0  0
    0.6977    1.6543   -0.6495 C   0  0  0  0  0  0  0  0  0  0  0  0
    1.8135    1.9321   -1.0789 O   0  0  0  0  0  0  0  0  0  0  0  0
   -0.4600    2.5118   -0.8542 C   0  0  0  0  0  0  0  0  0  0  0  0
   -0.4645    3.7810   -1.4188 C   0  0  0  0  0  0  0  0  0  0  0  0
   -1.7668    4.2215   -1.4938 N   0  0  0  0  0  0  0  0  0  0  0  0
   -2.6050    3.2537   -1.0147 C   0  0  0  0  0  0  0  0  0  0  0  0
   -3.9506    3.2906   -0.9842 N   0  0  0  0  0  0  0  0  0  0  0  0
   -4.4471    2.1245   -0.4699 C   0  0  0  0  0  0  0  0  0  0  0  0
   -3.6973    1.0327   -0.0001 C   0  0  0  0  0  0  0  0  0  0  0  0
   -2.3473    1.0829   -0.0411 N   0  0  0  0  0  0  0  0  0  0  0  0
   -1.8150    2.2038   -0.5796 C   0  0  0  0  0  0  0  0  0  0  0  0
   -4.3108   -0.2696    0.5407 C   0  0  0  0  0  0  0  0  0  0  0  0
   -4.8242   -0.2470    1.9803 C   0  0  0  0  0  0  0  0  0  0  0  0
   -5.8008   -0.3719    0.8558 C   0  0  0  0  0  0  0  0  0  0  0  0
   -3.6163   -1.5411    0.0324 C   0  0  0  0  0  0  0  0  0  0  0  0
   -2.5085   -1.9174    0.9176 N   0  0  0  0  0  0  0  0  0  0  0  0
   -1.6813   -2.9824    0.3644 C   0  0  0  0  0  0  0  0  0  0  0  0
   -0.4829   -2.3758   -0.3045 C   0  0  0  0  0  0  0  0  0  0  0  0
    0.8402   -3.1012   -0.2924 C   0  0  0  0  0  0  0  0  0  0  0  0
    0.6732   -1.8469    0.5342 C   0  0  0  0  0  0  0  0  0  0  0  0
    4.7713    0.2667    1.8787 C   0  0  0  0  0  0  0  0  0  0  0  0
    6.9290    0.0965    1.6896 H   0  0  0  0  0  0  0  0  0  0  0  0
    6.0909   -1.5861    0.2392 H   0  0  0  0  0  0  0  0  0  0  0  0
    6.4576   -0.3433   -0.9707 H   0  0  0  0  0  0  0  0  0  0  0  0
    3.9568   -1.4008   -0.7790 H   0  0  0  0  0  0  0  0  0  0  0  0
    4.1291    0.3541   -1.0553 H   0  0  0  0  0  0  0  0  0  0  0  0
    1.8822   -0.6870   -0.8147 H   0  0  0  0  0  0  0  0  0  0  0  0
   -0.5234    0.3221    0.3606 H   0  0  0  0  0  0  0  0  0  0  0  0
    0.3511    4.3934   -1.7824 H   0  0  0  0  0  0  0  0  0  0  0  0
   -2.0797    5.1035   -1.8735 H   0  0  0  0  0  0  0  0  0  0  0  0
   -5.5316    2.0956   -0.4526 H   0  0  0  0  0  0  0  0  0  0  0  0
   -4.6726   -1.1132    2.6132 H   0  0  0  0  0  0  0  0  0  0  0  0
   -4.7806    0.6908    2.5248 H   0  0  0  0  0  0  0  0  0  0  0  0
   -6.4693    0.4634    0.6904 H   0  0  0  0  0  0  0  0  0  0  0  0
   -6.2961   -1.3294    0.7272 H   0  0  0  0  0  0  0  0  0  0  0  0
   -4.3349   -2.3686   -0.0157 H   0  0  0  0  0  0  0  0  0  0  0  0
   -3.2609   -1.3724   -0.9919 H   0  0  0  0  0  0  0  0  0  0  0  0
   -2.8912   -2.2199    1.8099 H   0  0  0  0  0  0  0  0  0  0  0  0
   -2.2323   -3.6255   -0.3317 H   0  0  0  0  0  0  0  0  0  0  0  0
   -1.3543   -3.6279    1.1888 H   0  0  0  0  0  0  0  0  0  0  0  0
   -0.7501   -1.8375   -1.2075 H   0  0  0  0  0  0  0  0  0  0  0  0
    1.4400   -3.0599   -1.1947 H   0  0  0  0  0  0  0  0  0  0  0  0
    0.9145   -4.0441    0.2381 H   0  0  0  0  0  0  0  0  0  0  0  0
    0.5668   -1.9477    1.6109 H   0  0  0  0  0  0  0  0  0  0  0  0
    4.8545   -0.5259    2.6318 H   0  0  0  0  0  0  0  0  0  0  0  0
    4.4545    1.1875    2.3807 H   0  0  0  0  0  0  0  0  0  0  0  0
  1  2  3  0
  2  3  1  0
  3  4  1  0
  4  5  1  0
  5  6  1  0
  6  7  1  0
  7  8  2  0
  7  9  1  0
  9 10  1  0
 10 11  1  0
 11 12  2  0
 11 13  1  0
 13 14  2  0
 14 15  1  0
 15 16  1  0
 16 17  2  0
 17 18  1  0
 18 19  2  0
 19 20  1  0
 20 21  2  0
 19 22  1  0
 22 23  1  0
 23 24  1  0
 22 25  1  0
 25 26  1  0
 26 27  1  0
 27 28  1  0
 28 29  1  0
 29 30  1  0
  6 31  1  0
 31  3  1  0
 30  9  1  0
 21 13  1  0
 24 22  1  0
 30 28  1  0
 21 16  1  0
  3 32  1  1
  4 33  1  0
  4 34  1  0
  5 35  1  0
  5 36  1  0
  9 37  1  6
 10 38  1  0
 14 39  1  0
 15 40  1  0
 18 41  1  0
 23 42  1  0
 23 43  1  0
 24 44  1  0
 24 45  1  0
 25 46  1  0
 25 47  1  0
 26 48  1  0
 27 49  1  0
 27 50  1  0
 28 51  1  0
 29 52  1  0
 29 53  1  0
 30 54  1  0
 31 55  1  0
 31 56  1  0
M  END
>  <candidate_id>  (1) 
CAND_d7295004a0

>  <source_generator>  (1) 
v5_3_model_guided_macrocycle

>  <parent_mol_id>  (1) 
JAK2_69b6c7ad6e

>  <canonical_smiles>  (1) 
N#C[C@@H]1CCN(C(=O)[C@@H]2NC(=O)c3c[nH]c4ncc(nc34)C3(CC3)CNCC3CC32)C1

>  <inchikey>  (1) 
OCXBEBDLAHWVLE-SEBUGHOLSA-N

>  <valid_rdkit>  (1) 
True

>  <unique_flag>  (1) 
True

>  <novel_flag>  (1) 
True

>  <mw>  (1) 
419.489

>  <logp>  (1) 
0.6993

>  <tpsa>  (1) 
126.8

>  <hbd>  (1) 
3

>  <hba>  (1) 
6

>  <rotatable_bonds>  (1) 
1

>  <qed>  (1) 
0.6245

>  <sa_score>  (1) 
4.911

>  <murcko_scaffold>  (1) 
O=C1N[C@@H](C(=O)N2CCCC2)C2CC2CNCC2(CC2)c2cnc3[nH]cc1c3n2

>  <max_ring_size>  (1) 
13

>  <has_macrocycle_12_20>  (1) 
True

>  <has_constrained_ring_8_11>  (1) 
False

>  <passes_basic_filters>  (1) 
True

>  <generation_notes>  (1) 
v5_3_model_guided_anchor_pair=19-25;anchor_scores=0.691,0.079;linker_length=3;target_ring=12;linker_prob=0.278;chemotype=aza

$$$$
