CAND_c5284988bc
     RDKit          3D

 69 75  0  0  0  0  0  0  0  0999 V2000
    1.5326   -0.5726    2.3853 F   0  0  0  0  0  0  0  0  0  0  0  0
    2.3782   -0.1062    1.4546 C   0  0  0  0  0  0  0  0  0  0  0  0
    2.4255    1.2686    1.2301 C   0  0  0  0  0  0  0  0  0  0  0  0
    3.2531    1.8114    0.2329 C   0  0  0  0  0  0  0  0  0  0  0  0
    4.0735    0.9252   -0.4804 C   0  0  0  0  0  0  0  0  0  0  0  0
    4.0273   -0.4492   -0.2295 C   0  0  0  0  0  0  0  0  0  0  0  0
    4.8342   -1.2517   -0.9385 F   0  0  0  0  0  0  0  0  0  0  0  0
    3.1656   -0.9915    0.7237 C   0  0  0  0  0  0  0  0  0  0  0  0
    3.0798   -2.4751    0.9592 C   0  0  0  0  0  0  0  0  0  0  0  0
    2.4817   -3.2278   -0.1563 N   0  0  0  0  0  0  0  0  0  0  0  0
    2.5943   -4.6883    0.0599 C   0  0  0  0  0  0  0  0  0  0  0  0
    1.2822   -5.3436    0.5192 C   0  0  0  0  0  0  0  0  0  0  0  0
    0.2086   -5.1669   -0.4135 O   0  0  0  0  0  0  0  0  0  0  0  0
    0.3271   -3.9587   -1.1927 C   0  0  0  0  0  0  0  0  0  0  0  0
   -1.0640   -3.5647   -1.7204 C   0  0  0  0  0  0  0  0  0  0  0  0
   -2.2627   -2.9670   -0.4657 S   0  0  0  0  0  0  0  0  0  0  0  0
   -2.2353   -1.1776   -0.8588 C   0  0  0  0  0  0  0  0  0  0  0  0
   -3.1492   -0.2445   -0.0042 C   0  0  0  0  0  0  0  0  0  0  0  0
   -2.9346   -0.4193    1.5289 C   0  0  0  0  0  0  0  0  0  0  0  0
   -4.0628   -1.1970    2.1991 C   0  0  0  0  0  0  0  0  0  0  0  0
   -5.3677   -0.5675    2.0207 N   0  0  0  0  0  0  0  0  0  0  0  0
   -5.5646    0.0589    0.7121 C   0  0  0  0  0  0  0  0  0  0  0  0
   -4.6400   -0.5089   -0.3610 C   0  0  0  0  0  0  0  0  0  0  0  0
   -2.7393    1.1464   -0.3607 N   0  0  0  0  0  0  0  0  0  0  0  0
   -1.5072    1.6945   -0.1255 C   0  0  0  0  0  0  0  0  0  0  0  0
   -1.4908    2.9371   -0.7237 C   0  0  0  0  0  0  0  0  0  0  0  0
   -2.7879    3.0685   -1.2555 C   0  0  0  0  0  0  0  0  0  0  0  0
   -3.5472    1.9882   -1.0406 N   0  0  0  0  0  0  0  0  0  0  0  0
   -0.3168    3.7816   -0.7501 C   0  0  0  0  0  0  0  0  0  0  0  0
   -0.3291    5.1204   -1.0809 C   0  0  0  0  0  0  0  0  0  0  0  0
    0.7990    5.8751   -1.0908 N   0  0  0  0  0  0  0  0  0  0  0  0
    1.9524    5.2523   -0.7627 C   0  0  0  0  0  0  0  0  0  0  0  0
    3.1385    5.9719   -0.7576 C   0  0  0  0  0  0  0  0  0  0  0  0
    4.3529    5.3700   -0.4315 C   0  0  0  0  0  0  0  0  0  0  0  0
    4.3869    4.0180   -0.1051 C   0  0  0  0  0  0  0  0  0  0  0  0
    3.2066    3.2557   -0.0968 C   0  0  0  0  0  0  0  0  0  0  0  0
    1.9840    3.8775   -0.4254 C   0  0  0  0  0  0  0  0  0  0  0  0
    0.8404    3.1630   -0.4277 N   0  0  0  0  0  0  0  0  0  0  0  0
    1.0709   -2.8457   -0.4188 C   0  0  0  0  0  0  0  0  0  0  0  0
    1.7712    1.9097    1.8167 H   0  0  0  0  0  0  0  0  0  0  0  0
    4.7337    1.2830   -1.2664 H   0  0  0  0  0  0  0  0  0  0  0  0
    4.1089   -2.8229    1.1237 H   0  0  0  0  0  0  0  0  0  0  0  0
    2.5429   -2.6868    1.8933 H   0  0  0  0  0  0  0  0  0  0  0  0
    2.8806   -5.1296   -0.9032 H   0  0  0  0  0  0  0  0  0  0  0  0
    3.4007   -4.9371    0.7598 H   0  0  0  0  0  0  0  0  0  0  0  0
    1.4267   -6.4209    0.6492 H   0  0  0  0  0  0  0  0  0  0  0  0
    0.9645   -4.9398    1.4875 H   0  0  0  0  0  0  0  0  0  0  0  0
    0.9212   -4.2246   -2.0783 H   0  0  0  0  0  0  0  0  0  0  0  0
   -1.5284   -4.4460   -2.1769 H   0  0  0  0  0  0  0  0  0  0  0  0
   -0.9615   -2.8102   -2.5073 H   0  0  0  0  0  0  0  0  0  0  0  0
   -2.4983   -1.0631   -1.9179 H   0  0  0  0  0  0  0  0  0  0  0  0
   -1.1878   -0.8754   -0.7581 H   0  0  0  0  0  0  0  0  0  0  0  0
   -1.9734   -0.9051    1.7372 H   0  0  0  0  0  0  0  0  0  0  0  0
   -2.8791    0.5596    2.0267 H   0  0  0  0  0  0  0  0  0  0  0  0
   -3.8588   -1.2863    3.2723 H   0  0  0  0  0  0  0  0  0  0  0  0
   -4.1062   -2.2225    1.8178 H   0  0  0  0  0  0  0  0  0  0  0  0
   -5.5357    0.1238    2.7515 H   0  0  0  0  0  0  0  0  0  0  0  0
   -6.6081   -0.0881    0.4134 H   0  0  0  0  0  0  0  0  0  0  0  0
   -5.4161    1.1406    0.8067 H   0  0  0  0  0  0  0  0  0  0  0  0
   -4.9025   -0.0921   -1.3408 H   0  0  0  0  0  0  0  0  0  0  0  0
   -4.8363   -1.5853   -0.4465 H   0  0  0  0  0  0  0  0  0  0  0  0
   -0.7373    1.1559    0.4112 H   0  0  0  0  0  0  0  0  0  0  0  0
   -3.2149    3.8939   -1.8104 H   0  0  0  0  0  0  0  0  0  0  0  0
   -1.2394    5.6462   -1.3436 H   0  0  0  0  0  0  0  0  0  0  0  0
    3.1142    7.0284   -1.0154 H   0  0  0  0  0  0  0  0  0  0  0  0
    5.2687    5.9566   -0.4338 H   0  0  0  0  0  0  0  0  0  0  0  0
    5.3401    3.5594    0.1521 H   0  0  0  0  0  0  0  0  0  0  0  0
    0.5553   -2.6621    0.5323 H   0  0  0  0  0  0  0  0  0  0  0  0
    1.0587   -1.9198   -1.0041 H   0  0  0  0  0  0  0  0  0  0  0  0
  1  2  1  0
  2  3  1  0
  3  4  2  0
  4  5  1  0
  5  6  2  0
  6  7  1  0
  6  8  1  0
  8  9  1  0
  9 10  1  0
 10 11  1  0
 11 12  1  0
 12 13  1  0
 13 14  1  0
 14 15  1  0
 15 16  1  0
 16 17  1  0
 17 18  1  0
 18 19  1  0
 19 20  1  0
 20 21  1  0
 21 22  1  0
 22 23  1  0
 18 24  1  0
 24 25  1  0
 25 26  2  0
 26 27  1  0
 27 28  2  0
 26 29  1  0
 29 30  2  0
 30 31  1  0
 31 32  2  0
 32 33  1  0
 33 34  2  0
 34 35  1  0
 35 36  2  0
 36 37  1  0
 37 38  2  0
 14 39  1  0
  8  2  2  0
 39 10  1  0
 36  4  1  0
 23 18  1  0
 28 24  1  0
 38 29  1  0
 37 32  1  0
  3 40  1  0
  5 41  1  0
  9 42  1  0
  9 43  1  0
 11 44  1  0
 11 45  1  0
 12 46  1  0
 12 47  1  0
 14 48  1  0
 15 49  1  0
 15 50  1  0
 17 51  1  0
 17 52  1  0
 19 53  1  0
 19 54  1  0
 20 55  1  0
 20 56  1  0
 21 57  1  0
 22 58  1  0
 22 59  1  0
 23 60  1  0
 23 61  1  0
 25 62  1  0
 27 63  1  0
 30 64  1  0
 33 65  1  0
 34 66  1  0
 35 67  1  0
 39 68  1  0
 39 69  1  0
M  END
>  <candidate_id>  (1) 
CAND_c5284988bc

>  <source_generator>  (1) 
v5_3_model_guided_macrocycle

>  <parent_mol_id>  (1) 
JAK2_2dc2722230

>  <canonical_smiles>  (1) 
Fc1cc2cc(F)c1CN1CCOC(CSCC3(CCNCC3)n3cc(cn3)-c3cnc4cccc-2c4n3)C1

>  <inchikey>  (1) 
UMDQZSGINFDZSR-UHFFFAOYSA-N

>  <valid_rdkit>  (1) 
True

>  <unique_flag>  (1) 
True

>  <novel_flag>  (1) 
True

>  <mw>  (1) 
548.663

>  <logp>  (1) 
4.4648

>  <tpsa>  (1) 
68.1

>  <hbd>  (1) 
1

>  <hba>  (1) 
7

>  <rotatable_bonds>  (1) 
0

>  <qed>  (1) 
0.348

>  <sa_score>  (1) 
5.004

>  <murcko_scaffold>  (1) 
c1cc2c3nc(cnc3c1)-c1cnn(c1)C1(CCNCC1)CSCC1CN(CCO1)Cc1ccc-2cc1

>  <max_ring_size>  (1) 
19

>  <has_macrocycle_12_20>  (1) 
True

>  <has_constrained_ring_8_11>  (1) 
False

>  <passes_basic_filters>  (1) 
True

>  <generation_notes>  (1) 
v5_3_model_guided_anchor_pair=16-32;anchor_scores=0.691,0.079;linker_length=3;target_ring=18;linker_prob=0.496;chemotype=thioether

$$$$
