CAND_ce765fd66c
     RDKit          3D

 75 80  0  0  0  0  0  0  0  0999 V2000
   -7.1363    1.3411    1.5840 C   0  0  0  0  0  0  0  0  0  0  0  0
   -5.8720    1.9471    1.0694 C   0  0  0  0  0  0  0  0  0  0  0  0
   -5.7364    3.3163    0.9948 C   0  0  0  0  0  0  0  0  0  0  0  0
   -4.6259    3.9444    0.5718 N   0  0  0  0  0  0  0  0  0  0  0  0
   -3.5894    3.1756    0.2060 C   0  0  0  0  0  0  0  0  0  0  0  0
   -3.6337    1.8404    0.2147 N   0  0  0  0  0  0  0  0  0  0  0  0
   -4.7714    1.2304    0.6225 C   0  0  0  0  0  0  0  0  0  0  0  0
   -4.7135   -0.2420    0.5624 C   0  0  0  0  0  0  0  0  0  0  0  0
   -5.6947   -0.9951   -0.1045 C   0  0  0  0  0  0  0  0  0  0  0  0
   -5.6321   -2.3893   -0.1459 C   0  0  0  0  0  0  0  0  0  0  0  0
   -4.5732   -3.0580    0.4632 C   0  0  0  0  0  0  0  0  0  0  0  0
   -3.5599   -2.3378    1.1068 C   0  0  0  0  0  0  0  0  0  0  0  0
   -3.6415   -0.9368    1.1512 C   0  0  0  0  0  0  0  0  0  0  0  0
   -2.3803   -3.0529    1.7193 C   0  0  0  0  0  0  0  0  0  0  0  0
   -1.1253   -2.6773    1.1504 O   0  0  0  0  0  0  0  0  0  0  0  0
   -1.0481   -2.9359   -0.2501 C   0  0  0  0  0  0  0  0  0  0  0  0
    0.3949   -3.1292   -0.5994 C   0  0  0  0  0  0  0  0  0  0  0  0
    1.0835   -2.5196   -1.5887 C   0  0  0  0  0  0  0  0  0  0  0  0
    0.4779   -1.5115   -2.5405 C   0  0  0  0  0  0  0  0  0  0  0  0
   -0.0117   -0.3433   -1.8824 O   0  0  0  0  0  0  0  0  0  0  0  0
    1.0495    0.5081   -1.4489 C   0  0  0  0  0  0  0  0  0  0  0  0
    0.5994    1.9209   -1.1514 C   0  0  0  0  0  0  0  0  0  0  0  0
   -0.7348    2.2182   -0.8072 C   0  0  0  0  0  0  0  0  0  0  0  0
   -1.1497    3.5295   -0.5314 C   0  0  0  0  0  0  0  0  0  0  0  0
   -0.1902    4.5539   -0.6083 C   0  0  0  0  0  0  0  0  0  0  0  0
    1.1404    4.2817   -0.9201 C   0  0  0  0  0  0  0  0  0  0  0  0
    1.5337    2.9698   -1.1575 C   0  0  0  0  0  0  0  0  0  0  0  0
    2.8598    2.7570   -1.4381 O   0  0  0  0  0  0  0  0  0  0  0  0
    3.5563    2.2720   -0.2754 C   0  0  0  0  0  0  0  0  0  0  0  0
    4.4077    1.0604   -0.6830 C   0  0  0  0  0  0  0  0  0  0  0  0
    4.7583    0.2328    0.4758 N   0  0  0  0  0  0  0  0  0  0  0  0
    5.9101    0.7671    1.2036 C   0  0  0  0  0  0  0  0  0  0  0  0
    6.2792   -0.3801    2.1216 C   0  0  0  0  0  0  0  0  0  0  0  0
    5.8904   -1.6352    1.3511 C   0  0  0  0  0  0  0  0  0  0  0  0
    5.1177   -1.1530    0.1140 C   0  0  0  0  0  0  0  0  0  0  0  0
    3.9112   -2.0781   -0.1700 C   0  0  0  0  0  0  0  0  0  0  0  0
    3.4417   -1.9186   -1.5160 O   0  0  0  0  0  0  0  0  0  0  0  0
    2.5061   -2.9275   -1.8903 C   0  0  0  0  0  0  0  0  0  0  0  0
   -2.4476    3.8835   -0.1495 N   0  0  0  0  0  0  0  0  0  0  0  0
   -6.9320    0.4650    2.2075 H   0  0  0  0  0  0  0  0  0  0  0  0
   -7.6828    2.0510    2.2150 H   0  0  0  0  0  0  0  0  0  0  0  0
   -7.7899    1.0555    0.7545 H   0  0  0  0  0  0  0  0  0  0  0  0
   -6.5418    3.9816    1.2950 H   0  0  0  0  0  0  0  0  0  0  0  0
   -6.5128   -0.4959   -0.6185 H   0  0  0  0  0  0  0  0  0  0  0  0
   -6.4031   -2.9513   -0.6668 H   0  0  0  0  0  0  0  0  0  0  0  0
   -4.5323   -4.1436    0.4119 H   0  0  0  0  0  0  0  0  0  0  0  0
   -2.8417   -0.3735    1.6344 H   0  0  0  0  0  0  0  0  0  0  0  0
   -2.3426   -2.8159    2.7887 H   0  0  0  0  0  0  0  0  0  0  0  0
   -2.4905   -4.1418    1.6465 H   0  0  0  0  0  0  0  0  0  0  0  0
   -1.5771   -3.8642   -0.4981 H   0  0  0  0  0  0  0  0  0  0  0  0
   -1.5125   -2.1113   -0.7961 H   0  0  0  0  0  0  0  0  0  0  0  0
    0.9031   -3.8656    0.0197 H   0  0  0  0  0  0  0  0  0  0  0  0
    1.1744   -1.2282   -3.3390 H   0  0  0  0  0  0  0  0  0  0  0  0
   -0.3759   -1.9780   -3.0467 H   0  0  0  0  0  0  0  0  0  0  0  0
    1.4930    0.0836   -0.5425 H   0  0  0  0  0  0  0  0  0  0  0  0
    1.7976    0.5555   -2.2475 H   0  0  0  0  0  0  0  0  0  0  0  0
   -1.4507    1.4003   -0.7677 H   0  0  0  0  0  0  0  0  0  0  0  0
   -0.4729    5.5840   -0.4058 H   0  0  0  0  0  0  0  0  0  0  0  0
    1.8676    5.0865   -0.9624 H   0  0  0  0  0  0  0  0  0  0  0  0
    2.8670    1.9967    0.5353 H   0  0  0  0  0  0  0  0  0  0  0  0
    4.1981    3.0784    0.0980 H   0  0  0  0  0  0  0  0  0  0  0  0
    5.2945    1.3929   -1.2386 H   0  0  0  0  0  0  0  0  0  0  0  0
    3.8357    0.4765   -1.4060 H   0  0  0  0  0  0  0  0  0  0  0  0
    5.6633    1.6697    1.7710 H   0  0  0  0  0  0  0  0  0  0  0  0
    6.7493    0.9908    0.5328 H   0  0  0  0  0  0  0  0  0  0  0  0
    7.3411   -0.3719    2.3857 H   0  0  0  0  0  0  0  0  0  0  0  0
    5.7013   -0.3259    3.0523 H   0  0  0  0  0  0  0  0  0  0  0  0
    6.7822   -2.1949    1.0472 H   0  0  0  0  0  0  0  0  0  0  0  0
    5.2918   -2.2900    1.9952 H   0  0  0  0  0  0  0  0  0  0  0  0
    5.7945   -1.1500   -0.7517 H   0  0  0  0  0  0  0  0  0  0  0  0
    4.2331   -3.1179   -0.0325 H   0  0  0  0  0  0  0  0  0  0  0  0
    3.0923   -1.8758    0.5304 H   0  0  0  0  0  0  0  0  0  0  0  0
    2.6082   -3.0789   -2.9714 H   0  0  0  0  0  0  0  0  0  0  0  0
    2.7657   -3.8915   -1.4349 H   0  0  0  0  0  0  0  0  0  0  0  0
   -2.6454    4.8689   -0.0645 H   0  0  0  0  0  0  0  0  0  0  0  0
  1  2  1  0
  2  3  2  0
  3  4  1  0
  4  5  2  0
  5  6  1  0
  6  7  2  0
  7  8  1  0
  8  9  2  0
  9 10  1  0
 10 11  2  0
 11 12  1  0
 12 13  2  0
 12 14  1  0
 14 15  1  0
 15 16  1  0
 16 17  1  0
 17 18  2  3
 18 19  1  0
 19 20  1  0
 20 21  1  0
 21 22  1  0
 22 23  2  0
 23 24  1  0
 24 25  2  0
 25 26  1  0
 26 27  2  0
 27 28  1  0
 28 29  1  0
 29 30  1  0
 30 31  1  0
 31 32  1  0
 32 33  1  0
 33 34  1  0
 34 35  1  0
 35 36  1  0
 36 37  1  0
 37 38  1  0
 24 39  1  0
  7  2  1  0
 13  8  1  0
 38 18  1  0
 39  5  1  0
 27 22  1  0
 35 31  1  0
  1 40  1  0
  1 41  1  0
  1 42  1  0
  3 43  1  0
  9 44  1  0
 10 45  1  0
 11 46  1  0
 13 47  1  0
 14 48  1  0
 14 49  1  0
 16 50  1  0
 16 51  1  0
 17 52  1  0
 19 53  1  0
 19 54  1  0
 21 55  1  0
 21 56  1  0
 23 57  1  0
 25 58  1  0
 26 59  1  0
 29 60  1  0
 29 61  1  0
 30 62  1  0
 30 63  1  0
 32 64  1  0
 32 65  1  0
 33 66  1  0
 33 67  1  0
 34 68  1  0
 34 69  1  0
 35 70  1  0
 36 71  1  0
 36 72  1  0
 38 73  1  0
 38 74  1  0
 39 75  1  0
M  END
>  <candidate_id>  (1) 
CAND_ce765fd66c

>  <source_generator>  (1) 
v5_3_model_guided_macrocycle

>  <parent_mol_id>  (1) 
JAK2_5e05d7987e

>  <canonical_smiles>  (1) 
Cc1cnc2nc1-c1cccc(c1)COCC=C1COCc3cc(ccc3OCCN3CCCC3COC1)N2

>  <inchikey>  (1) 
SIKJDUKNEZKELQ-UHFFFAOYSA-N

>  <valid_rdkit>  (1) 
True

>  <unique_flag>  (1) 
True

>  <novel_flag>  (1) 
True

>  <mw>  (1) 
528.653

>  <logp>  (1) 
5.0422

>  <tpsa>  (1) 
77.97

>  <hbd>  (1) 
1

>  <hba>  (1) 
8

>  <rotatable_bonds>  (1) 
0

>  <qed>  (1) 
0.4068

>  <sa_score>  (1) 
4.664

>  <murcko_scaffold>  (1) 
C1=C2COCc3cc(ccc3OCCN3CCCC3COC2)Nc2nccc(n2)-c2cccc(c2)COC1

>  <max_ring_size>  (1) 
18

>  <has_macrocycle_12_20>  (1) 
True

>  <has_constrained_ring_8_11>  (1) 
False

>  <passes_basic_filters>  (1) 
True

>  <generation_notes>  (1) 
v5_3_model_guided_anchor_pair=17-31;anchor_scores=0.312,0.079;linker_length=3;target_ring=13;linker_prob=0.563;chemotype=oxa

$$$$
