CAND_e6c0627bb9
     RDKit          3D

 65 69  0  0  0  0  0  0  0  0999 V2000
   -4.4004   -2.0563    1.9350 C   0  0  0  0  0  0  0  0  0  0  0  0
   -4.4609   -1.0726    0.7458 C   0  0  0  0  0  0  0  0  0  0  0  0
   -5.3960    0.0895    1.1381 C   0  0  0  0  0  0  0  0  0  0  0  0
   -5.0778   -1.8133   -0.4551 C   0  0  0  0  0  0  0  0  0  0  0  0
   -3.0307   -0.5173    0.4767 C   0  0  1  0  0  0  0  0  0  0  0  0
   -2.0747   -1.5493    0.0738 N   0  0  0  0  0  0  0  0  0  0  0  0
   -0.7408   -1.4591    0.4181 C   0  0  0  0  0  0  0  0  0  0  0  0
   -0.3340   -0.6141    1.2095 O   0  0  0  0  0  0  0  0  0  0  0  0
    0.1382   -2.3907   -0.2768 C   0  0  0  0  0  0  0  0  0  0  0  0
   -0.2278   -3.5409   -0.9723 C   0  0  0  0  0  0  0  0  0  0  0  0
    0.9036   -4.1043   -1.5119 N   0  0  0  0  0  0  0  0  0  0  0  0
    1.9902   -3.3470   -1.1883 C   0  0  0  0  0  0  0  0  0  0  0  0
    3.2543   -3.5856   -1.5839 N   0  0  0  0  0  0  0  0  0  0  0  0
    4.0924   -2.6314   -1.0982 C   0  0  0  0  0  0  0  0  0  0  0  0
    3.7256   -1.5538   -0.2786 C   0  0  0  0  0  0  0  0  0  0  0  0
    2.4317   -1.3679    0.0828 N   0  0  0  0  0  0  0  0  0  0  0  0
    1.5567   -2.2902   -0.3963 C   0  0  0  0  0  0  0  0  0  0  0  0
    4.7476   -0.5247    0.2069 C   0  0  0  0  0  0  0  0  0  0  0  0
    4.6142    0.8443   -0.4445 C   0  0  0  0  0  0  0  0  0  0  0  0
    3.5465    1.7132    0.2282 C   0  0  0  0  0  0  0  0  0  0  0  0
    3.2433    2.8682   -0.5569 O   0  0  0  0  0  0  0  0  0  0  0  0
    2.3073    2.6120   -1.5925 C   0  0  0  0  0  0  0  0  0  0  0  0
    1.0617    3.3232   -1.3310 N   0  0  0  0  0  0  0  0  0  0  0  0
    0.3235    2.7095   -0.2151 C   0  0  0  0  0  0  0  0  0  0  0  0
   -1.1069    3.2626   -0.0786 C   0  0  0  0  0  0  0  0  0  0  0  0
   -1.1305    4.6693    0.2634 C   0  0  0  0  0  0  0  0  0  0  0  0
   -1.1618    5.7926    0.5545 N   0  0  0  0  0  0  0  0  0  0  0  0
   -2.0852    2.8538   -1.2092 C   0  0  0  0  0  0  0  0  0  0  0  0
   -2.4982    1.7671   -0.3343 N   0  0  0  0  0  0  0  0  0  0  0  0
   -1.9798    2.3906    0.8660 C   0  0  0  0  0  0  0  0  0  0  0  0
   -2.9604    0.5257   -0.6615 C   0  0  0  0  0  0  0  0  0  0  0  0
   -3.2178    0.2250   -1.8298 O   0  0  0  0  0  0  0  0  0  0  0  0
    6.1381   -0.9843    0.6293 C   0  0  0  0  0  0  0  0  0  0  0  0
    5.1510   -0.5737    1.6751 C   0  0  0  0  0  0  0  0  0  0  0  0
   -3.7855   -2.9322    1.7008 H   0  0  0  0  0  0  0  0  0  0  0  0
   -5.4000   -2.4192    2.2005 H   0  0  0  0  0  0  0  0  0  0  0  0
   -3.9765   -1.5767    2.8245 H   0  0  0  0  0  0  0  0  0  0  0  0
   -5.5276    0.7970    0.3123 H   0  0  0  0  0  0  0  0  0  0  0  0
   -4.9991    0.6445    1.9956 H   0  0  0  0  0  0  0  0  0  0  0  0
   -6.3908   -0.2788    1.4138 H   0  0  0  0  0  0  0  0  0  0  0  0
   -5.2318   -1.1496   -1.3109 H   0  0  0  0  0  0  0  0  0  0  0  0
   -6.0603   -2.2248   -0.1943 H   0  0  0  0  0  0  0  0  0  0  0  0
   -4.4554   -2.6526   -0.7811 H   0  0  0  0  0  0  0  0  0  0  0  0
   -2.6695   -0.0653    1.4054 H   0  0  0  0  0  0  0  0  0  0  0  0
   -2.3273   -2.1287   -0.7145 H   0  0  0  0  0  0  0  0  0  0  0  0
   -1.1890   -4.0110   -1.1322 H   0  0  0  0  0  0  0  0  0  0  0  0
    0.9502   -4.9397   -2.0782 H   0  0  0  0  0  0  0  0  0  0  0  0
    5.1282   -2.7570   -1.4012 H   0  0  0  0  0  0  0  0  0  0  0  0
    5.5690    1.3852   -0.4148 H   0  0  0  0  0  0  0  0  0  0  0  0
    4.3950    0.7214   -1.5125 H   0  0  0  0  0  0  0  0  0  0  0  0
    2.6312    1.1601    0.4573 H   0  0  0  0  0  0  0  0  0  0  0  0
    3.9330    2.0772    1.1865 H   0  0  0  0  0  0  0  0  0  0  0  0
    2.7371    3.0183   -2.5140 H   0  0  0  0  0  0  0  0  0  0  0  0
    2.1388    1.5428   -1.7729 H   0  0  0  0  0  0  0  0  0  0  0  0
    1.3395    4.2715   -1.0694 H   0  0  0  0  0  0  0  0  0  0  0  0
    0.8670    2.8650    0.7258 H   0  0  0  0  0  0  0  0  0  0  0  0
    0.2730    1.6256   -0.3805 H   0  0  0  0  0  0  0  0  0  0  0  0
   -1.6277    2.5238   -2.1460 H   0  0  0  0  0  0  0  0  0  0  0  0
   -2.9088    3.5432   -1.4231 H   0  0  0  0  0  0  0  0  0  0  0  0
   -2.7659    2.9068    1.4281 H   0  0  0  0  0  0  0  0  0  0  0  0
   -1.4232    1.7379    1.5412 H   0  0  0  0  0  0  0  0  0  0  0  0
    6.4008   -2.0357    0.5907 H   0  0  0  0  0  0  0  0  0  0  0  0
    6.9826   -0.3275    0.4479 H   0  0  0  0  0  0  0  0  0  0  0  0
    5.3366    0.3538    2.2051 H   0  0  0  0  0  0  0  0  0  0  0  0
    4.7141   -1.3454    2.3014 H   0  0  0  0  0  0  0  0  0  0  0  0
  1  2  1  0
  2  3  1  0
  2  4  1  0
  2  5  1  0
  5  6  1  0
  6  7  1  0
  7  8  2  0
  7  9  1  0
  9 10  2  0
 10 11  1  0
 11 12  1  0
 12 13  2  0
 13 14  1  0
 14 15  2  0
 15 16  1  0
 16 17  2  0
 15 18  1  0
 18 19  1  0
 19 20  1  0
 20 21  1  0
 21 22  1  0
 22 23  1  0
 23 24  1  0
 24 25  1  0
 25 26  1  0
 26 27  3  0
 25 28  1  0
 28 29  1  0
 29 30  1  0
 29 31  1  0
 31 32  2  0
 18 33  1  0
 33 34  1  0
 31  5  1  0
 17  9  1  0
 34 18  1  0
 17 12  1  0
 30 25  1  0
  1 35  1  0
  1 36  1  0
  1 37  1  0
  3 38  1  0
  3 39  1  0
  3 40  1  0
  4 41  1  0
  4 42  1  0
  4 43  1  0
  5 44  1  1
  6 45  1  0
 10 46  1  0
 11 47  1  0
 14 48  1  0
 19 49  1  0
 19 50  1  0
 20 51  1  0
 20 52  1  0
 22 53  1  0
 22 54  1  0
 23 55  1  0
 24 56  1  0
 24 57  1  0
 28 58  1  0
 28 59  1  0
 30 60  1  0
 30 61  1  0
 33 62  1  0
 33 63  1  0
 34 64  1  0
 34 65  1  0
M  END
>  <candidate_id>  (1) 
CAND_e6c0627bb9

>  <source_generator>  (1) 
v5_3_model_guided_macrocycle

>  <parent_mol_id>  (1) 
JAK2_1a53985c87

>  <canonical_smiles>  (1) 
CC(C)(C)[C@H]1NC(=O)c2c[nH]c3ncc(nc23)C2(CCOCNCC3(C#N)CN(C3)C1=O)CC2

>  <inchikey>  (1) 
MUCGFCOGPOVGDH-SFHVURJKSA-N

>  <valid_rdkit>  (1) 
True

>  <unique_flag>  (1) 
True

>  <novel_flag>  (1) 
True

>  <mw>  (1) 
465.558

>  <logp>  (1) 
1.4536

>  <tpsa>  (1) 
136.03

>  <hbd>  (1) 
3

>  <hba>  (1) 
7

>  <rotatable_bonds>  (1) 
0

>  <qed>  (1) 
0.5357

>  <sa_score>  (1) 
4.292

>  <murcko_scaffold>  (1) 
O=C1NCC(=O)N2CC(CNCOCCC3(CC3)c3cnc4[nH]cc1c4n3)C2

>  <max_ring_size>  (1) 
18

>  <has_macrocycle_12_20>  (1) 
True

>  <has_constrained_ring_8_11>  (1) 
False

>  <passes_basic_filters>  (1) 
True

>  <generation_notes>  (1) 
v5_3_model_guided_anchor_pair=15-24;anchor_scores=0.691,0.691;linker_length=6;target_ring=17;linker_prob=0.248;chemotype=oxa_aza

$$$$
