CAND_53308bee89
     RDKit          3D

 57 62  0  0  0  0  0  0  0  0999 V2000
    8.1710    0.1770    0.4571 N   0  0  0  0  0  0  0  0  0  0  0  0
    7.0632    0.4948    0.5904 C   0  0  0  0  0  0  0  0  0  0  0  0
    5.6853    0.8880    0.7496 C   0  0  0  0  0  0  0  0  0  0  0  0
    4.8474    0.0039    1.6900 C   0  0  0  0  0  0  0  0  0  0  0  0
    3.8418    0.0036    0.6464 N   0  0  0  0  0  0  0  0  0  0  0  0
    2.5004   -0.2411    0.7224 C   0  0  0  0  0  0  0  0  0  0  0  0
    1.9657   -0.5243    1.7971 O   0  0  0  0  0  0  0  0  0  0  0  0
    1.7008   -0.0970   -0.5980 C   0  0  2  0  0  0  0  0  0  0  0  0
    0.6787    0.9129   -0.3935 N   0  0  0  0  0  0  0  0  0  0  0  0
    0.9131    2.2527   -0.2413 C   0  0  0  0  0  0  0  0  0  0  0  0
    2.0128    2.7712   -0.3992 O   0  0  0  0  0  0  0  0  0  0  0  0
   -0.2741    2.9838    0.1947 C   0  0  0  0  0  0  0  0  0  0  0  0
   -0.3395    4.3192    0.5683 C   0  0  0  0  0  0  0  0  0  0  0  0
   -1.6217    4.5930    0.9916 N   0  0  0  0  0  0  0  0  0  0  0  0
   -2.3889    3.4646    0.8987 C   0  0  0  0  0  0  0  0  0  0  0  0
   -3.6806    3.3346    1.2572 N   0  0  0  0  0  0  0  0  0  0  0  0
   -4.1200    2.0635    1.0201 C   0  0  0  0  0  0  0  0  0  0  0  0
   -3.3675    1.0169    0.4630 C   0  0  0  0  0  0  0  0  0  0  0  0
   -2.0635    1.2106    0.1401 N   0  0  0  0  0  0  0  0  0  0  0  0
   -1.5884    2.4637    0.3750 C   0  0  0  0  0  0  0  0  0  0  0  0
   -3.9507   -0.3714    0.1675 C   0  0  0  0  0  0  0  0  0  0  0  0
   -4.3795   -0.6092   -1.2843 C   0  0  0  0  0  0  0  0  0  0  0  0
   -5.4181   -0.5364   -0.2134 C   0  0  0  0  0  0  0  0  0  0  0  0
   -3.2976   -1.5158    0.9493 C   0  0  0  0  0  0  0  0  0  0  0  0
   -2.9443   -2.5911    0.0679 O   0  0  0  0  0  0  0  0  0  0  0  0
   -1.8501   -3.3757    0.5251 C   0  0  0  0  0  0  0  0  0  0  0  0
   -0.6767   -3.1855   -0.3260 N   0  0  0  0  0  0  0  0  0  0  0  0
   -0.1977   -1.8098   -0.2132 C   0  0  0  0  0  0  0  0  0  0  0  0
    1.0467   -1.4373   -1.0140 C   0  0  0  0  0  0  0  0  0  0  0  0
    1.0611   -1.7741   -2.4990 C   0  0  0  0  0  0  0  0  0  0  0  0
    1.9625   -2.5226   -1.5609 C   0  0  0  0  0  0  0  0  0  0  0  0
    4.7408    0.4600   -0.3901 C   0  0  0  0  0  0  0  0  0  0  0  0
    5.5815    1.9556    0.9896 H   0  0  0  0  0  0  0  0  0  0  0  0
    5.2293   -1.0005    1.8986 H   0  0  0  0  0  0  0  0  0  0  0  0
    4.5303    0.4873    2.6180 H   0  0  0  0  0  0  0  0  0  0  0  0
    2.3553    0.2632   -1.3973 H   0  0  0  0  0  0  0  0  0  0  0  0
   -0.2754    0.6145   -0.2264 H   0  0  0  0  0  0  0  0  0  0  0  0
    0.4262    5.0843    0.5917 H   0  0  0  0  0  0  0  0  0  0  0  0
   -1.9600    5.4777    1.3430 H   0  0  0  0  0  0  0  0  0  0  0  0
   -5.1585    1.9020    1.2954 H   0  0  0  0  0  0  0  0  0  0  0  0
   -4.1920   -1.5730   -1.7442 H   0  0  0  0  0  0  0  0  0  0  0  0
   -4.3073    0.2154   -1.9859 H   0  0  0  0  0  0  0  0  0  0  0  0
   -5.9194   -1.4613    0.0551 H   0  0  0  0  0  0  0  0  0  0  0  0
   -6.0823    0.3193   -0.2295 H   0  0  0  0  0  0  0  0  0  0  0  0
   -2.4129   -1.1478    1.4819 H   0  0  0  0  0  0  0  0  0  0  0  0
   -3.9960   -1.9028    1.6999 H   0  0  0  0  0  0  0  0  0  0  0  0
   -2.1560   -4.4235    0.4380 H   0  0  0  0  0  0  0  0  0  0  0  0
   -1.6212   -3.2092    1.5853 H   0  0  0  0  0  0  0  0  0  0  0  0
   -0.9894   -3.3371   -1.2824 H   0  0  0  0  0  0  0  0  0  0  0  0
   -0.0245   -1.5880    0.8436 H   0  0  0  0  0  0  0  0  0  0  0  0
   -0.9982   -1.1607   -0.5773 H   0  0  0  0  0  0  0  0  0  0  0  0
    0.2197   -2.3064   -2.9279 H   0  0  0  0  0  0  0  0  0  0  0  0
    1.5154   -1.0729   -3.1908 H   0  0  0  0  0  0  0  0  0  0  0  0
    1.7312   -3.5604   -1.3452 H   0  0  0  0  0  0  0  0  0  0  0  0
    3.0279   -2.3300   -1.6200 H   0  0  0  0  0  0  0  0  0  0  0  0
    4.3641    1.2879   -0.9956 H   0  0  0  0  0  0  0  0  0  0  0  0
    5.0798   -0.3563   -1.0356 H   0  0  0  0  0  0  0  0  0  0  0  0
  1  2  3  0
  2  3  1  0
  3  4  1  0
  4  5  1  0
  5  6  1  0
  6  7  2  0
  6  8  1  0
  8  9  1  0
  9 10  1  0
 10 11  2  0
 10 12  1  0
 12 13  2  0
 13 14  1  0
 14 15  1  0
 15 16  2  0
 16 17  1  0
 17 18  2  0
 18 19  1  0
 19 20  2  0
 18 21  1  0
 21 22  1  0
 22 23  1  0
 21 24  1  0
 24 25  1  0
 25 26  1  0
 26 27  1  0
 27 28  1  0
 28 29  1  0
 29 30  1  0
 30 31  1  0
  5 32  1  0
 32  3  1  0
 29  8  1  0
 20 12  1  0
 23 21  1  0
 31 29  1  0
 20 15  1  0
  3 33  1  0
  4 34  1  0
  4 35  1  0
  8 36  1  6
  9 37  1  0
 13 38  1  0
 14 39  1  0
 17 40  1  0
 22 41  1  0
 22 42  1  0
 23 43  1  0
 23 44  1  0
 24 45  1  0
 24 46  1  0
 26 47  1  0
 26 48  1  0
 27 49  1  0
 28 50  1  0
 28 51  1  0
 30 52  1  0
 30 53  1  0
 31 54  1  0
 31 55  1  0
 32 56  1  0
 32 57  1  0
M  END
>  <candidate_id>  (1) 
CAND_53308bee89

>  <source_generator>  (1) 
v5_3_model_guided_macrocycle

>  <parent_mol_id>  (1) 
JAK2_c385760536

>  <canonical_smiles>  (1) 
N#CC1CN(C(=O)[C@@H]2NC(=O)c3c[nH]c4ncc(nc34)C3(CC3)COCNCC23CC3)C1

>  <inchikey>  (1) 
RMIJTQSMDAIJLA-KRWDZBQOSA-N

>  <valid_rdkit>  (1) 
True

>  <unique_flag>  (1) 
True

>  <novel_flag>  (1) 
True

>  <mw>  (1) 
435.488

>  <logp>  (1) 
0.4274

>  <tpsa>  (1) 
136.03

>  <hbd>  (1) 
3

>  <hba>  (1) 
7

>  <rotatable_bonds>  (1) 
1

>  <qed>  (1) 
0.5908

>  <sa_score>  (1) 
4.25

>  <murcko_scaffold>  (1) 
O=C1N[C@@H](C(=O)N2CCC2)C2(CC2)CNCOCC2(CC2)c2cnc3[nH]cc1c3n2

>  <max_ring_size>  (1) 
14

>  <has_macrocycle_12_20>  (1) 
True

>  <has_constrained_ring_8_11>  (1) 
False

>  <passes_basic_filters>  (1) 
True

>  <generation_notes>  (1) 
v5_3_model_guided_anchor_pair=18-23;anchor_scores=0.691,0.691;linker_length=5;target_ring=13;linker_prob=0.225;chemotype=oxa_aza

$$$$
