CAND_e39c68c1d0
     RDKit          3D

 36 37  0  0  0  0  0  0  0  0999 V2000
    4.5574    2.7963   -3.6383 F   0  0  0  0  0  0  0  0  0  0  0  0
    4.0111    3.3819   -2.5368 C   0  0  0  0  0  0  0  0  0  0  0  0
    3.1614    2.4283   -1.7660 C   0  0  0  0  0  0  0  0  0  0  0  0
    2.9442    1.1524   -2.1083 C   0  0  0  0  0  0  0  0  0  0  0  0
    2.1896    0.1877   -1.4904 N   0  0  0  0  0  0  0  0  0  0  0  0
    1.4207    0.1934   -0.3532 C   0  0  0  0  0  0  0  0  0  0  0  0
    1.2345    1.2517    0.3896 N   0  0  0  0  0  0  0  0  0  0  0  0
    0.4502    1.1211    1.5511 N   0  0  0  0  0  0  0  0  0  0  0  0
   -0.8336    1.2701    1.4205 C   0  0  0  0  0  0  0  0  0  0  0  0
   -1.4734    1.5104    0.2335 N   0  0  0  0  0  0  0  0  0  0  0  0
   -2.1009    0.5242   -0.3190 C   0  0  0  0  0  0  0  0  0  0  0  0
   -2.3794   -0.8523    0.2001 C   0  0  0  0  0  0  0  0  0  0  0  0
   -3.1193   -0.9726    1.3171 C   0  0  0  0  0  0  0  0  0  0  0  0
   -3.6717    0.1188    2.0874 C   0  0  0  0  0  0  0  0  0  0  0  0
   -2.9722    1.1325    2.6098 C   0  0  0  0  0  0  0  0  0  0  0  0
   -1.5795    1.2762    2.5722 O   0  0  0  0  0  0  0  0  0  0  0  0
   -2.0478   -1.9857   -0.6431 C   0  0  0  0  0  0  0  0  0  0  0  0
   -1.3482   -3.0857   -0.3174 C   0  0  0  0  0  0  0  0  0  0  0  0
   -0.7079   -3.4028    0.9405 C   0  0  0  0  0  0  0  0  0  0  0  0
    0.3110   -2.7657    1.5395 C   0  0  0  0  0  0  0  0  0  0  0  0
    1.0068   -1.5433    1.0588 C   0  0  0  0  0  0  0  0  0  0  0  0
    0.8012   -1.0031   -0.0928 N   0  0  0  0  0  0  0  0  0  0  0  0
    4.8312    3.7489   -1.9133 H   0  0  0  0  0  0  0  0  0  0  0  0
    3.4154    4.2352   -2.8732 H   0  0  0  0  0  0  0  0  0  0  0  0
    2.6997    2.8354   -0.8711 H   0  0  0  0  0  0  0  0  0  0  0  0
    3.4136    0.7648   -3.0119 H   0  0  0  0  0  0  0  0  0  0  0  0
    2.1637   -0.7080   -1.9600 H   0  0  0  0  0  0  0  0  0  0  0  0
   -2.5089    0.7050   -1.3290 H   0  0  0  0  0  0  0  0  0  0  0  0
   -3.4326   -1.9620    1.6456 H   0  0  0  0  0  0  0  0  0  0  0  0
   -4.7409    0.0681    2.2810 H   0  0  0  0  0  0  0  0  0  0  0  0
   -3.3994    1.9067    3.2341 H   0  0  0  0  0  0  0  0  0  0  0  0
   -2.4019   -1.9010   -1.6698 H   0  0  0  0  0  0  0  0  0  0  0  0
   -1.2279   -3.8545   -1.0801 H   0  0  0  0  0  0  0  0  0  0  0  0
   -1.0795   -4.3133    1.4087 H   0  0  0  0  0  0  0  0  0  0  0  0
    0.6946   -3.1450    2.4819 H   0  0  0  0  0  0  0  0  0  0  0  0
    1.7186   -1.1140    1.7891 H   0  0  0  0  0  0  0  0  0  0  0  0
  1  2  1  0
  2  3  1  0
  3  4  2  3
  4  5  1  0
  5  6  1  0
  6  7  2  3
  7  8  1  0
  8  9  2  3
  9 10  1  0
 10 11  2  3
 11 12  1  0
 12 13  2  3
 13 14  1  0
 14 15  2  3
 15 16  1  0
 12 17  1  0
 17 18  2  3
 18 19  1  0
 19 20  2  3
 20 21  1  0
 21 22  2  3
 22  6  1  0
 16  9  1  0
  2 23  1  0
  2 24  1  0
  3 25  1  0
  4 26  1  0
  5 27  1  0
 11 28  1  0
 13 29  1  0
 14 30  1  0
 15 31  1  0
 17 32  1  0
 18 33  1  0
 19 34  1  0
 20 35  1  0
 21 36  1  0
M  END
>  <candidate_id>  (1) 
CAND_e39c68c1d0

>  <source_generator>  (1) 
selfies

>  <parent_mol_id>  (1) 
JAK2_155bd54352

>  <canonical_smiles>  (1) 
FCC=CNC1=NN=C2N=CC(=CC=CO2)C=CC=CC=N1

>  <inchikey>  (1) 
QPFJHUXRFOEWLY-UHFFFAOYSA-N

>  <valid_rdkit>  (1) 
True

>  <unique_flag>  (1) 
True

>  <novel_flag>  (1) 
True

>  <mw>  (1) 
299.309

>  <logp>  (1) 
2.4241

>  <tpsa>  (1) 
70.7

>  <hbd>  (1) 
1

>  <hba>  (1) 
6

>  <rotatable_bonds>  (1) 
2

>  <qed>  (1) 
0.8503

>  <sa_score>  (1) 
2.95

>  <murcko_scaffold>  (1) 
C1=CC=NC=NN=C2N=CC(=CC=CO2)C=C1

>  <max_ring_size>  (1) 
13

>  <has_macrocycle_12_20>  (1) 
True

>  <has_constrained_ring_8_11>  (1) 
False

>  <passes_basic_filters>  (1) 
True

>  <generation_notes>  (1) 
selfies_token_mutation

>  <best_score>  (1) 
nan

>  <qed_admet>  (1) 
0.8503

>  <sa_score_admet>  (1) 
2.95

>  <mw_admet>  (1) 
299.309

>  <logp_admet>  (1) 
2.4241

>  <tpsa_admet>  (1) 
70.7

>  <hbd_admet>  (1) 
1

>  <hba_admet>  (1) 
6

>  <rotatable_bonds_admet>  (1) 
2

>  <lipinski_violations>  (1) 
0

>  <veber_pass>  (1) 
True

>  <admet_score>  (1) 
0.932635

>  <synthesis_score>  (1) 
0.783333

>  <safety_proxy_score>  (1) 
1.0

>  <main_risk>  (1) 
no_major_descriptor_risk

>  <pose_score>  (1) 
0.5

>  <pose_decision>  (1) 
nan

>  <contacts_within_4A>  (1) 
nan

>  <hard_clashes_lt_1_8A>  (1) 
nan

>  <smiles>  (1) 
FCC=CNC1=NN=C2N=CC(=CC=CO2)C=CC=CC=N1

>  <docking_score>  (1) 
nan

>  <diversity_cluster>  (1) 
scaffold_32ce0f6a

>  <docking_score_scaled>  (1) 
0.0

>  <novelty_score>  (1) 
1.0

>  <final_weighted_score>  (1) 
0.529027

>  <rank>  (1) 
108

>  <decision>  (1) 
await_docking

>  <diverse_rank>  (1) 
99

>  <selection_tier>  (1) 
await_docking

$$$$
CAND_bd9a5bcc10
     RDKit          3D

 30 31  0  0  0  0  0  0  0  0999 V2000
    3.5739    0.9453   -1.8002 F   0  0  0  0  0  0  0  0  0  0  0  0
    3.7432    0.0973   -0.6586 N   0  0  0  0  0  0  0  0  0  0  0  0
    2.5730   -0.0206    0.0424 C   0  0  0  0  0  0  0  0  0  0  0  0
    1.4102   -0.5234   -0.4320 N   0  0  0  0  0  0  0  0  0  0  0  0
    1.1830   -0.7489   -1.7431 C   0  0  0  0  0  0  0  0  0  0  0  0
    0.2343   -1.4618   -2.3838 C   0  0  0  0  0  0  0  0  0  0  0  0
   -0.7899   -2.1926   -1.9144 C   0  0  0  0  0  0  0  0  0  0  0  0
   -1.4524   -2.3062   -0.7541 C   0  0  0  0  0  0  0  0  0  0  0  0
   -1.6738   -1.5058    0.2989 C   0  0  0  0  0  0  0  0  0  0  0  0
   -1.5196    0.0519    0.4052 C   0  0  0  0  0  0  0  0  0  0  0  0
   -2.0716    0.8574   -0.6055 C   0  0  0  0  0  0  0  0  0  0  0  0
   -2.0847    2.2510   -0.4893 C   0  0  0  0  0  0  0  0  0  0  0  0
   -1.5619    2.8576    0.6505 C   0  0  0  0  0  0  0  0  0  0  0  0
   -1.0313    2.0676    1.6700 C   0  0  0  0  0  0  0  0  0  0  0  0
   -1.0032    0.6712    1.5530 C   0  0  0  0  0  0  0  0  0  0  0  0
   -0.4935   -0.0414    2.6281 O   0  0  0  0  0  0  0  0  0  0  0  0
    0.8569   -0.3738    2.5155 C   0  0  0  0  0  0  0  0  0  0  0  0
    1.7568    0.6089    2.3119 N   0  0  0  0  0  0  0  0  0  0  0  0
    2.8519    0.1730    1.3695 N   0  0  0  0  0  0  0  0  0  0  0  0
    4.3764    0.3545    0.0900 H   0  0  0  0  0  0  0  0  0  0  0  0
    1.9242   -0.3559   -2.4360 H   0  0  0  0  0  0  0  0  0  0  0  0
    0.4367   -1.5689   -3.4475 H   0  0  0  0  0  0  0  0  0  0  0  0
   -1.1062   -2.9340   -2.6485 H   0  0  0  0  0  0  0  0  0  0  0  0
   -1.9678   -3.2608   -0.6519 H   0  0  0  0  0  0  0  0  0  0  0  0
   -2.1860   -1.9425    1.1498 H   0  0  0  0  0  0  0  0  0  0  0  0
   -2.4408    0.3886   -1.5096 H   0  0  0  0  0  0  0  0  0  0  0  0
   -2.4485    2.8546   -1.3106 H   0  0  0  0  0  0  0  0  0  0  0  0
   -1.4970    3.9351    0.7269 H   0  0  0  0  0  0  0  0  0  0  0  0
   -0.5324    2.5075    2.5278 H   0  0  0  0  0  0  0  0  0  0  0  0
    0.9403   -1.3848    2.1309 H   0  0  0  0  0  0  0  0  0  0  0  0
  1  2  1  0
  2  3  1  0
  3  4  1  0
  4  5  2  0
  5  6  1  0
  6  7  2  0
  7  8  1  0
  8  9  2  0
  9 10  1  0
 10 11  2  0
 11 12  1  0
 12 13  2  0
 13 14  1  0
 14 15  2  0
 15 16  1  0
 16 17  1  0
 17 18  2  0
 18 19  1  0
 19  3  2  0
 15 10  1  0
  2 20  1  0
  5 21  1  0
  6 22  1  0
  7 23  1  0
  8 24  1  0
  9 25  1  0
 11 26  1  0
 12 27  1  0
 13 28  1  0
 14 29  1  0
 17 30  1  0
M  END
>  <candidate_id>  (2) 
CAND_bd9a5bcc10

>  <source_generator>  (2) 
selfies

>  <parent_mol_id>  (2) 
JAK2_4c13d3aa84

>  <canonical_smiles>  (2) 
FNc1ncccccc2ccccc2ocnn1

>  <inchikey>  (2) 
ADBSJDPVMIPLJO-UHFFFAOYSA-N

>  <valid_rdkit>  (2) 
True

>  <unique_flag>  (2) 
True

>  <novel_flag>  (2) 
True

>  <mw>  (2) 
258.256

>  <logp>  (2) 
3.163

>  <tpsa>  (2) 
63.84

>  <hbd>  (2) 
1

>  <hba>  (2) 
5

>  <rotatable_bonds>  (2) 
1

>  <qed>  (2) 
0.7958

>  <sa_score>  (2) 
2.825

>  <murcko_scaffold>  (2) 
c1ccncnncoc2ccccc2cc1

>  <max_ring_size>  (2) 
13

>  <has_macrocycle_12_20>  (2) 
True

>  <has_constrained_ring_8_11>  (2) 
False

>  <passes_basic_filters>  (2) 
True

>  <generation_notes>  (2) 
selfies_token_mutation

>  <best_score>  (2) 
nan

>  <qed_admet>  (2) 
0.7958

>  <sa_score_admet>  (2) 
2.825

>  <mw_admet>  (2) 
258.256

>  <logp_admet>  (2) 
3.163

>  <tpsa_admet>  (2) 
63.84

>  <hbd_admet>  (2) 
1

>  <hba_admet>  (2) 
5

>  <rotatable_bonds_admet>  (2) 
1

>  <lipinski_violations>  (2) 
0

>  <veber_pass>  (2) 
True

>  <admet_score>  (2) 
0.90811

>  <synthesis_score>  (2) 
0.797222

>  <safety_proxy_score>  (2) 
1.0

>  <main_risk>  (2) 
no_major_descriptor_risk

>  <pose_score>  (2) 
0.5

>  <pose_decision>  (2) 
nan

>  <contacts_within_4A>  (2) 
nan

>  <hard_clashes_lt_1_8A>  (2) 
nan

>  <smiles>  (2) 
FNc1ncccccc2ccccc2ocnn1

>  <docking_score>  (2) 
nan

>  <diversity_cluster>  (2) 
scaffold_51270458

>  <docking_score_scaled>  (2) 
0.0

>  <novelty_score>  (2) 
1.0

>  <final_weighted_score>  (2) 
0.526205

>  <rank>  (2) 
146

>  <decision>  (2) 
await_docking

>  <diverse_rank>  (2) 
133

>  <selection_tier>  (2) 
await_docking

$$$$
CAND_31c1461a1a
     RDKit          3D

 46 46  0  0  0  0  0  0  0  0999 V2000
    4.5612   -0.8618    0.5085 C   0  0  0  0  0  0  0  0  0  0  0  0
    3.7882    0.1927   -0.2692 C   0  0  0  0  0  0  0  0  0  0  0  0
    2.3142   -0.1674   -0.4710 C   0  0  0  0  0  0  0  0  0  0  0  0
    1.5496   -0.1945    0.7806 N   0  0  0  0  0  0  0  0  0  0  0  0
    1.2494   -1.5080    1.3526 C   0  0  0  0  0  0  0  0  0  0  0  0
   -0.2017   -1.9740    1.1461 C   0  0  0  0  0  0  0  0  0  0  0  0
   -0.6086   -2.2013   -0.3148 C   0  0  0  0  0  0  0  0  0  0  0  0
   -1.0742   -0.9520   -1.0830 C   0  0  0  0  0  0  0  0  0  0  0  0
   -2.5166   -0.6643   -0.9241 N   0  0  0  0  0  0  0  0  0  0  0  0
   -3.4419   -1.5257   -1.5279 C   0  0  0  0  0  0  0  0  0  0  0  0
   -4.7526   -1.4788   -1.7892 C   0  0  0  0  0  0  0  0  0  0  0  0
   -5.8534   -0.2125   -1.4725 Cl  0  0  0  0  0  0  0  0  0  0  0  0
   -2.9427    0.6536   -0.3891 C   0  0  0  0  0  0  0  0  0  0  0  0
   -1.9833    1.3832    0.5540 C   0  0  0  0  0  0  0  0  0  0  0  0
   -1.0954    2.4251   -0.1410 C   0  0  0  0  0  0  0  0  0  0  0  0
   -0.0585    3.0495    0.8067 C   0  0  0  0  0  0  0  0  0  0  0  0
    1.2784    2.2995    0.8576 C   0  0  0  0  0  0  0  0  0  0  0  0
    1.1509    0.9281    1.5006 C   0  0  0  0  0  0  0  0  0  0  0  0
    0.6741    0.8361    2.6350 O   0  0  0  0  0  0  0  0  0  0  0  0
    4.1926   -0.9499    1.5349 H   0  0  0  0  0  0  0  0  0  0  0  0
    4.4839   -1.8414    0.0264 H   0  0  0  0  0  0  0  0  0  0  0  0
    5.6209   -0.5914    0.5574 H   0  0  0  0  0  0  0  0  0  0  0  0
    4.2551    0.3099   -1.2543 H   0  0  0  0  0  0  0  0  0  0  0  0
    3.8836    1.1550    0.2454 H   0  0  0  0  0  0  0  0  0  0  0  0
    2.2290   -1.1411   -0.9673 H   0  0  0  0  0  0  0  0  0  0  0  0
    1.8536    0.5528   -1.1531 H   0  0  0  0  0  0  0  0  0  0  0  0
    1.9436   -2.2507    0.9429 H   0  0  0  0  0  0  0  0  0  0  0  0
    1.4470   -1.4680    2.4309 H   0  0  0  0  0  0  0  0  0  0  0  0
   -0.2939   -2.9380    1.6641 H   0  0  0  0  0  0  0  0  0  0  0  0
   -0.9070   -1.3048    1.6445 H   0  0  0  0  0  0  0  0  0  0  0  0
    0.2435   -2.6411   -0.8479 H   0  0  0  0  0  0  0  0  0  0  0  0
   -1.3942   -2.9654   -0.3290 H   0  0  0  0  0  0  0  0  0  0  0  0
   -0.4561   -0.0962   -0.8353 H   0  0  0  0  0  0  0  0  0  0  0  0
   -0.8924   -1.1258   -2.1525 H   0  0  0  0  0  0  0  0  0  0  0  0
   -2.9486   -2.4357   -1.8707 H   0  0  0  0  0  0  0  0  0  0  0  0
   -5.2554   -2.2994   -2.2868 H   0  0  0  0  0  0  0  0  0  0  0  0
   -3.8435    0.4805    0.2104 H   0  0  0  0  0  0  0  0  0  0  0  0
   -3.2196    1.3083   -1.2239 H   0  0  0  0  0  0  0  0  0  0  0  0
   -2.5909    1.9310    1.2878 H   0  0  0  0  0  0  0  0  0  0  0  0
   -1.4037    0.6717    1.1342 H   0  0  0  0  0  0  0  0  0  0  0  0
   -0.6009    2.0174   -1.0279 H   0  0  0  0  0  0  0  0  0  0  0  0
   -1.7506    3.2284   -0.5029 H   0  0  0  0  0  0  0  0  0  0  0  0
    0.1546    4.0653    0.4501 H   0  0  0  0  0  0  0  0  0  0  0  0
   -0.4796    3.1567    1.8134 H   0  0  0  0  0  0  0  0  0  0  0  0
    1.9823    2.8678    1.4784 H   0  0  0  0  0  0  0  0  0  0  0  0
    1.7095    2.2768   -0.1420 H   0  0  0  0  0  0  0  0  0  0  0  0
  1  2  1  0
  2  3  1  0
  3  4  1  0
  4  5  1  0
  5  6  1  0
  6  7  1  0
  7  8  1  0
  8  9  1  0
  9 10  1  0
 10 11  2  3
 11 12  1  0
  9 13  1  0
 13 14  1  0
 14 15  1  0
 15 16  1  0
 16 17  1  0
 17 18  1  0
 18 19  2  0
 18  4  1  0
  1 20  1  0
  1 21  1  0
  1 22  1  0
  2 23  1  0
  2 24  1  0
  3 25  1  0
  3 26  1  0
  5 27  1  0
  5 28  1  0
  6 29  1  0
  6 30  1  0
  7 31  1  0
  7 32  1  0
  8 33  1  0
  8 34  1  0
 10 35  1  0
 11 36  1  0
 13 37  1  0
 13 38  1  0
 14 39  1  0
 14 40  1  0
 15 41  1  0
 15 42  1  0
 16 43  1  0
 16 44  1  0
 17 45  1  0
 17 46  1  0
M  END
>  <candidate_id>  (3) 
CAND_31c1461a1a

>  <source_generator>  (3) 
selfies

>  <parent_mol_id>  (3) 
JAK2_387ef5022f

>  <canonical_smiles>  (3) 
CCCN1CCCCN(C=CCl)CCCCCC1=O

>  <inchikey>  (3) 
KTLIDWDERLKGHP-UHFFFAOYSA-N

>  <valid_rdkit>  (3) 
True

>  <unique_flag>  (3) 
True

>  <novel_flag>  (3) 
True

>  <mw>  (3) 
286.847

>  <logp>  (3) 
3.5912

>  <tpsa>  (3) 
23.55

>  <hbd>  (3) 
0

>  <hba>  (3) 
2

>  <rotatable_bonds>  (3) 
3

>  <qed>  (3) 
0.7915

>  <sa_score>  (3) 
2.825

>  <murcko_scaffold>  (3) 
O=C1CCCCCNCCCCN1

>  <max_ring_size>  (3) 
12

>  <has_macrocycle_12_20>  (3) 
True

>  <has_constrained_ring_8_11>  (3) 
False

>  <passes_basic_filters>  (3) 
True

>  <generation_notes>  (3) 
selfies_token_mutation

>  <best_score>  (3) 
nan

>  <qed_admet>  (3) 
0.7915

>  <sa_score_admet>  (3) 
2.825

>  <mw_admet>  (3) 
286.847

>  <logp_admet>  (3) 
3.5912

>  <tpsa_admet>  (3) 
23.55

>  <hbd_admet>  (3) 
0

>  <hba_admet>  (3) 
2

>  <rotatable_bonds_admet>  (3) 
3

>  <lipinski_violations>  (3) 
0

>  <veber_pass>  (3) 
True

>  <admet_score>  (3) 
0.906175

>  <synthesis_score>  (3) 
0.797222

>  <safety_proxy_score>  (3) 
1.0

>  <main_risk>  (3) 
no_major_descriptor_risk

>  <pose_score>  (3) 
0.5

>  <pose_decision>  (3) 
nan

>  <contacts_within_4A>  (3) 
nan

>  <hard_clashes_lt_1_8A>  (3) 
nan

>  <smiles>  (3) 
CCCN1CCCCN(C=CCl)CCCCCC1=O

>  <docking_score>  (3) 
nan

>  <diversity_cluster>  (3) 
scaffold_eb029b56

>  <docking_score_scaled>  (3) 
0.0

>  <novelty_score>  (3) 
1.0

>  <final_weighted_score>  (3) 
0.525818

>  <rank>  (3) 
151

>  <decision>  (3) 
await_docking

>  <diverse_rank>  (3) 
138

>  <selection_tier>  (3) 
await_docking

$$$$
CAND_8e1f1bf521
     RDKit          3D

 38 40  0  0  0  0  0  0  0  0999 V2000
    7.4804   -1.3762   -0.9329 F   0  0  0  0  0  0  0  0  0  0  0  0
    6.1388   -1.2186   -0.7728 C   0  0  0  0  0  0  0  0  0  0  0  0
    5.6997   -2.2813    0.0635 O   0  0  0  0  0  0  0  0  0  0  0  0
    4.3670   -2.3241    0.3677 C   0  0  0  0  0  0  0  0  0  0  0  0
    3.3857   -1.4877    0.0025 C   0  0  0  0  0  0  0  0  0  0  0  0
    2.0594   -1.5896    0.3386 N   0  0  0  0  0  0  0  0  0  0  0  0
    1.0009   -0.7815   -0.0066 C   0  0  0  0  0  0  0  0  0  0  0  0
    1.2010    0.2542   -0.7879 N   0  0  0  0  0  0  0  0  0  0  0  0
    0.2508    1.1428   -1.1944 N   0  0  0  0  0  0  0  0  0  0  0  0
    0.1325    2.4092   -0.4680 C   0  0  0  0  0  0  0  0  0  0  0  0
   -1.2041    2.5554    0.0649 O   0  0  0  0  0  0  0  0  0  0  0  0
   -1.9077    1.5919   -0.6240 C   0  0  0  0  0  0  0  0  0  0  0  0
   -3.2095    1.2174   -0.3540 C   0  0  0  0  0  0  0  0  0  0  0  0
   -3.7703    0.1941   -1.1272 C   0  0  0  0  0  0  0  0  0  0  0  0
   -2.9834   -0.4935   -2.0693 C   0  0  0  0  0  0  0  0  0  0  0  0
   -1.6178   -0.2132   -2.1911 C   0  0  0  0  0  0  0  0  0  0  0  0
   -1.0930    0.8190   -1.4363 C   0  0  0  0  0  0  0  0  0  0  0  0
   -3.7986    1.6742    0.9031 C   0  0  0  0  0  0  0  0  0  0  0  0
   -3.7299    0.9622    2.0440 C   0  0  0  0  0  0  0  0  0  0  0  0
   -3.2776   -0.4068    2.2214 C   0  0  0  0  0  0  0  0  0  0  0  0
   -2.1353   -1.0346    1.8997 C   0  0  0  0  0  0  0  0  0  0  0  0
   -0.8803   -0.4897    1.3191 C   0  0  0  0  0  0  0  0  0  0  0  0
   -0.1956   -1.2210    0.5020 N   0  0  0  0  0  0  0  0  0  0  0  0
    5.6744   -1.2722   -1.7623 H   0  0  0  0  0  0  0  0  0  0  0  0
    5.9708   -0.2450   -0.3024 H   0  0  0  0  0  0  0  0  0  0  0  0
    4.1846   -3.1910    0.9940 H   0  0  0  0  0  0  0  0  0  0  0  0
    3.5785   -0.6219   -0.6253 H   0  0  0  0  0  0  0  0  0  0  0  0
    1.7887   -2.3922    0.8905 H   0  0  0  0  0  0  0  0  0  0  0  0
    0.3281    3.2525   -1.1419 H   0  0  0  0  0  0  0  0  0  0  0  0
    0.8405    2.4671    0.3672 H   0  0  0  0  0  0  0  0  0  0  0  0
   -4.7907   -0.1339   -0.9452 H   0  0  0  0  0  0  0  0  0  0  0  0
   -3.4165   -1.3122   -2.6386 H   0  0  0  0  0  0  0  0  0  0  0  0
   -0.9733   -0.8192   -2.8182 H   0  0  0  0  0  0  0  0  0  0  0  0
   -4.2102    2.6792    0.9000 H   0  0  0  0  0  0  0  0  0  0  0  0
   -4.1712    1.4045    2.9370 H   0  0  0  0  0  0  0  0  0  0  0  0
   -4.0484   -1.0281    2.6821 H   0  0  0  0  0  0  0  0  0  0  0  0
   -2.0845   -2.1100    2.0568 H   0  0  0  0  0  0  0  0  0  0  0  0
   -0.5838    0.5207    1.6442 H   0  0  0  0  0  0  0  0  0  0  0  0
  1  2  1  0
  2  3  1  0
  3  4  1  0
  4  5  2  3
  5  6  1  0
  6  7  1  0
  7  8  2  3
  8  9  1  0
  9 10  1  0
 10 11  1  0
 11 12  1  0
 12 13  2  0
 13 14  1  0
 14 15  2  0
 15 16  1  0
 16 17  2  0
 13 18  1  0
 18 19  2  3
 19 20  1  0
 20 21  2  3
 21 22  1  0
 22 23  2  3
 23  7  1  0
 17  9  1  0
 17 12  1  0
  2 24  1  0
  2 25  1  0
  4 26  1  0
  5 27  1  0
  6 28  1  0
 10 29  1  0
 10 30  1  0
 14 31  1  0
 15 32  1  0
 16 33  1  0
 18 34  1  0
 19 35  1  0
 20 36  1  0
 21 37  1  0
 22 38  1  0
M  END
>  <candidate_id>  (4) 
CAND_8e1f1bf521

>  <source_generator>  (4) 
selfies

>  <parent_mol_id>  (4) 
JAK2_d7634eac48

>  <canonical_smiles>  (4) 
FCOC=CNC1=NN2COc3c(cccc32)C=CC=CC=N1

>  <inchikey>  (4) 
XBVFAGWLQDATRL-UHFFFAOYSA-N

>  <valid_rdkit>  (4) 
True

>  <unique_flag>  (4) 
True

>  <novel_flag>  (4) 
True

>  <mw>  (4) 
314.32

>  <logp>  (4) 
2.7721

>  <tpsa>  (4) 
58.45

>  <hbd>  (4) 
1

>  <hba>  (4) 
6

>  <rotatable_bonds>  (4) 
3

>  <qed>  (4) 
0.8717

>  <sa_score>  (4) 
3.325

>  <murcko_scaffold>  (4) 
C1=CC=NC=NN2COc3c(cccc32)C=C1

>  <max_ring_size>  (4) 
12

>  <has_macrocycle_12_20>  (4) 
True

>  <has_constrained_ring_8_11>  (4) 
False

>  <passes_basic_filters>  (4) 
True

>  <generation_notes>  (4) 
selfies_token_mutation

>  <best_score>  (4) 
nan

>  <qed_admet>  (4) 
0.8717

>  <sa_score_admet>  (4) 
3.325

>  <mw_admet>  (4) 
314.32

>  <logp_admet>  (4) 
2.7721

>  <tpsa_admet>  (4) 
58.45

>  <hbd_admet>  (4) 
1

>  <hba_admet>  (4) 
6

>  <rotatable_bonds_admet>  (4) 
3

>  <lipinski_violations>  (4) 
0

>  <veber_pass>  (4) 
True

>  <admet_score>  (4) 
0.942265

>  <synthesis_score>  (4) 
0.741667

>  <safety_proxy_score>  (4) 
1.0

>  <main_risk>  (4) 
no_major_descriptor_risk

>  <pose_score>  (4) 
0.5

>  <pose_decision>  (4) 
nan

>  <contacts_within_4A>  (4) 
nan

>  <hard_clashes_lt_1_8A>  (4) 
nan

>  <smiles>  (4) 
FCOC=CNC1=NN2COc3c(cccc32)C=CC=CC=N1

>  <docking_score>  (4) 
nan

>  <diversity_cluster>  (4) 
scaffold_a4ec55b5

>  <docking_score_scaled>  (4) 
0.0

>  <novelty_score>  (4) 
1.0

>  <final_weighted_score>  (4) 
0.524703

>  <rank>  (4) 
176

>  <decision>  (4) 
await_docking

>  <diverse_rank>  (4) 
156

>  <selection_tier>  (4) 
await_docking

$$$$
CAND_45fd077ab1
     RDKit          3D

 46 46  0  0  0  0  0  0  0  0999 V2000
    4.8811   -0.5854    0.5765 C   0  0  0  0  0  0  0  0  0  0  0  0
    4.4711    0.7932    0.0354 C   0  0  0  0  0  0  0  0  0  0  0  0
    5.4779    1.2171   -1.0377 C   0  0  0  0  0  0  0  0  0  0  0  0
    2.9996    0.7742   -0.4756 C   0  0  1  0  0  0  0  0  0  0  0  0
    2.1200    0.4505    0.6692 N   0  0  0  0  0  0  0  0  0  0  0  0
    0.9096   -0.1972    0.5383 C   0  0  0  0  0  0  0  0  0  0  0  0
    0.6328   -0.6738   -0.6139 N   0  0  0  0  0  0  0  0  0  0  0  0
   -0.5200   -1.3775   -1.1267 C   0  0  0  0  0  0  0  0  0  0  0  0
   -0.9997   -2.5588   -0.3425 C   0  0  0  0  0  0  0  0  0  0  0  0
   -2.2688   -2.7991    0.0299 C   0  0  0  0  0  0  0  0  0  0  0  0
   -3.2646   -1.8824   -0.1520 N   0  0  0  0  0  0  0  0  0  0  0  0
   -4.5576   -1.9311    0.3371 C   0  0  0  0  0  0  0  0  0  0  0  0
   -5.1403   -2.9545    0.6829 O   0  0  0  0  0  0  0  0  0  0  0  0
   -5.2316   -0.5371    0.2819 C   0  0  0  0  0  0  0  0  0  0  0  0
   -4.2391    0.5771    0.3445 N   0  0  0  0  0  0  0  0  0  0  0  0
   -4.6915    1.9064   -0.0311 C   0  0  0  0  0  0  0  0  0  0  0  0
   -3.3634    0.4786    1.3991 N   0  0  0  0  0  0  0  0  0  0  0  0
   -2.1057    0.6193    1.1115 C   0  0  0  0  0  0  0  0  0  0  0  0
   -1.1249    0.1014    2.0762 C   0  0  0  0  0  0  0  0  0  0  0  0
    0.1224   -0.2905    1.8015 C   0  0  0  0  0  0  0  0  0  0  0  0
    2.5740    2.0995   -1.1533 C   0  0  0  0  0  0  0  0  0  0  0  0
    1.2540    2.1367   -1.4476 F   0  0  0  0  0  0  0  0  0  0  0  0
    2.8297    3.1569   -0.3423 F   0  0  0  0  0  0  0  0  0  0  0  0
    3.2382    2.3088   -2.3134 F   0  0  0  0  0  0  0  0  0  0  0  0
    4.2515   -0.8909    1.4181 H   0  0  0  0  0  0  0  0  0  0  0  0
    4.8060   -1.3530   -0.2013 H   0  0  0  0  0  0  0  0  0  0  0  0
    5.9157   -0.5696    0.9365 H   0  0  0  0  0  0  0  0  0  0  0  0
    4.5489    1.5086    0.8652 H   0  0  0  0  0  0  0  0  0  0  0  0
    5.3724    0.6103   -1.9431 H   0  0  0  0  0  0  0  0  0  0  0  0
    6.5059    1.1065   -0.6752 H   0  0  0  0  0  0  0  0  0  0  0  0
    5.3513    2.2698   -1.3074 H   0  0  0  0  0  0  0  0  0  0  0  0
    2.9276   -0.0199   -1.2296 H   0  0  0  0  0  0  0  0  0  0  0  0
    2.3306    0.9206    1.5429 H   0  0  0  0  0  0  0  0  0  0  0  0
   -1.3024   -0.6555   -1.3673 H   0  0  0  0  0  0  0  0  0  0  0  0
   -0.2229   -1.7774   -2.1054 H   0  0  0  0  0  0  0  0  0  0  0  0
   -0.2513   -3.3193   -0.1336 H   0  0  0  0  0  0  0  0  0  0  0  0
   -2.5486   -3.7149    0.5464 H   0  0  0  0  0  0  0  0  0  0  0  0
   -3.0316   -0.9629   -0.5068 H   0  0  0  0  0  0  0  0  0  0  0  0
   -5.7729   -0.4615   -0.6663 H   0  0  0  0  0  0  0  0  0  0  0  0
   -5.9217   -0.4292    1.1242 H   0  0  0  0  0  0  0  0  0  0  0  0
   -3.8410    2.5931   -0.0539 H   0  0  0  0  0  0  0  0  0  0  0  0
   -5.1396    1.8615   -1.0272 H   0  0  0  0  0  0  0  0  0  0  0  0
   -5.4304    2.2525    0.6968 H   0  0  0  0  0  0  0  0  0  0  0  0
   -1.7368    0.9550    0.1292 H   0  0  0  0  0  0  0  0  0  0  0  0
   -1.5236   -0.0609    3.0741 H   0  0  0  0  0  0  0  0  0  0  0  0
    0.7097   -0.6954    2.6232 H   0  0  0  0  0  0  0  0  0  0  0  0
  1  2  1  0
  2  3  1  0
  2  4  1  0
  4  5  1  0
  5  6  1  0
  6  7  2  3
  7  8  1  0
  8  9  1  0
  9 10  2  3
 10 11  1  0
 11 12  1  0
 12 13  2  0
 12 14  1  0
 14 15  1  0
 15 16  1  0
 15 17  1  0
 17 18  2  3
 18 19  1  0
 19 20  2  3
  4 21  1  0
 21 22  1  0
 21 23  1  0
 21 24  1  0
 20  6  1  0
  1 25  1  0
  1 26  1  0
  1 27  1  0
  2 28  1  0
  3 29  1  0
  3 30  1  0
  3 31  1  0
  4 32  1  6
  5 33  1  0
  8 34  1  0
  8 35  1  0
  9 36  1  0
 10 37  1  0
 11 38  1  0
 14 39  1  0
 14 40  1  0
 16 41  1  0
 16 42  1  0
 16 43  1  0
 18 44  1  0
 19 45  1  0
 20 46  1  0
M  END
>  <candidate_id>  (5) 
CAND_45fd077ab1

>  <source_generator>  (5) 
selfies

>  <parent_mol_id>  (5) 
JAK2_9befca631f

>  <canonical_smiles>  (5) 
CC(C)[C@@H](NC1=NCC=CNC(=O)CN(C)N=CC=C1)C(F)(F)F

>  <inchikey>  (5) 
QBZOFUDOHTXCPQ-CQSZACIVSA-N

>  <valid_rdkit>  (5) 
True

>  <unique_flag>  (5) 
True

>  <novel_flag>  (5) 
True

>  <mw>  (5) 
345.369

>  <logp>  (5) 
1.6787

>  <tpsa>  (5) 
69.09

>  <hbd>  (5) 
2

>  <hba>  (5) 
5

>  <rotatable_bonds>  (5) 
2

>  <qed>  (5) 
0.8

>  <sa_score>  (5) 
2.95

>  <murcko_scaffold>  (5) 
O=C1CNN=CC=CC=NCC=CN1

>  <max_ring_size>  (5) 
13

>  <has_macrocycle_12_20>  (5) 
True

>  <has_constrained_ring_8_11>  (5) 
False

>  <passes_basic_filters>  (5) 
True

>  <generation_notes>  (5) 
selfies_token_mutation

>  <best_score>  (5) 
nan

>  <qed_admet>  (5) 
0.8

>  <sa_score_admet>  (5) 
2.95

>  <mw_admet>  (5) 
345.369

>  <logp_admet>  (5) 
1.6787

>  <tpsa_admet>  (5) 
69.09

>  <hbd_admet>  (5) 
2

>  <hba_admet>  (5) 
5

>  <rotatable_bonds_admet>  (5) 
2

>  <lipinski_violations>  (5) 
0

>  <veber_pass>  (5) 
True

>  <admet_score>  (5) 
0.91

>  <synthesis_score>  (5) 
0.783333

>  <safety_proxy_score>  (5) 
1.0

>  <main_risk>  (5) 
no_major_descriptor_risk

>  <pose_score>  (5) 
0.5

>  <pose_decision>  (5) 
nan

>  <contacts_within_4A>  (5) 
nan

>  <hard_clashes_lt_1_8A>  (5) 
nan

>  <smiles>  (5) 
CC(C)[C@@H](NC1=NCC=CNC(=O)CN(C)N=CC=C1)C(F)(F)F

>  <docking_score>  (5) 
nan

>  <diversity_cluster>  (5) 
scaffold_3f78315e

>  <docking_score_scaled>  (5) 
0.0

>  <novelty_score>  (5) 
1.0

>  <final_weighted_score>  (5) 
0.5245

>  <rank>  (5) 
183

>  <decision>  (5) 
await_docking

>  <diverse_rank>  (5) 
162

>  <selection_tier>  (5) 
await_docking

$$$$
CAND_03abc0c2b1
     RDKit          3D

 49 50  0  0  0  0  0  0  0  0999 V2000
   -3.1216    0.7619    2.7501 C   0  0  0  0  0  0  0  0  0  0  0  0
   -1.9911    0.0286    2.0409 C   0  0  0  0  0  0  0  0  0  0  0  0
   -1.6719    0.5920    0.6394 C   0  0  2  0  0  0  0  0  0  0  0  0
   -2.8623    0.5214   -0.3454 C   0  0  0  0  0  0  0  0  0  0  0  0
   -2.5626    0.9527   -1.7821 C   0  0  0  0  0  0  0  0  0  0  0  0
   -3.8302    0.5635   -2.5333 C   0  0  0  0  0  0  0  0  0  0  0  0
   -4.3688   -0.6748   -1.8168 C   0  0  0  0  0  0  0  0  0  0  0  0
   -3.5288   -0.8408   -0.5490 C   0  0  0  0  0  0  0  0  0  0  0  0
   -0.4347   -0.0341    0.1000 N   0  0  0  0  0  0  0  0  0  0  0  0
    0.5865    0.7337   -0.4501 C   0  0  0  0  0  0  0  0  0  0  0  0
    1.4613    0.3605   -1.3934 C   0  0  0  0  0  0  0  0  0  0  0  0
    2.7115    1.1231   -1.5917 C   0  0  0  0  0  0  0  0  0  0  0  0
    3.2217    1.8115   -0.6276 N   0  0  0  0  0  0  0  0  0  0  0  0
    4.5349    2.1599   -0.6994 C   0  0  0  0  0  0  0  0  0  0  0  0
    5.5286    1.3555   -0.6055 N   0  0  0  0  0  0  0  0  0  0  0  0
    5.3831   -0.0902   -0.5598 C   0  0  0  0  0  0  0  0  0  0  0  0
    4.8930   -0.7796    0.6237 N   0  0  0  0  0  0  0  0  0  0  0  0
    3.6195   -0.6880    1.1192 C   0  0  0  0  0  0  0  0  0  0  0  0
    2.7995   -1.6953    1.4430 C   0  0  0  0  0  0  0  0  0  0  0  0
    1.3698   -1.4785    1.8599 C   0  0  0  0  0  0  0  0  0  0  0  0
    0.4346   -2.0364    0.8007 C   0  0  0  0  0  0  0  0  0  0  0  0
   -0.4053   -1.4017    0.0267 N   0  0  0  0  0  0  0  0  0  0  0  0
   -3.2274    0.3863    3.7730 H   0  0  0  0  0  0  0  0  0  0  0  0
   -2.9205    1.8364    2.8041 H   0  0  0  0  0  0  0  0  0  0  0  0
   -4.0795    0.6125    2.2439 H   0  0  0  0  0  0  0  0  0  0  0  0
   -2.2377   -1.0381    1.9867 H   0  0  0  0  0  0  0  0  0  0  0  0
   -1.0958    0.1067    2.6695 H   0  0  0  0  0  0  0  0  0  0  0  0
   -1.4593    1.6616    0.7804 H   0  0  0  0  0  0  0  0  0  0  0  0
   -3.6352    1.2045    0.0373 H   0  0  0  0  0  0  0  0  0  0  0  0
   -1.7158    0.4012   -2.2044 H   0  0  0  0  0  0  0  0  0  0  0  0
   -2.3515    2.0232   -1.8625 H   0  0  0  0  0  0  0  0  0  0  0  0
   -3.6349    0.3741   -3.5933 H   0  0  0  0  0  0  0  0  0  0  0  0
   -4.5663    1.3738   -2.4726 H   0  0  0  0  0  0  0  0  0  0  0  0
   -5.4271   -0.5365   -1.5688 H   0  0  0  0  0  0  0  0  0  0  0  0
   -4.2950   -1.5662   -2.4488 H   0  0  0  0  0  0  0  0  0  0  0  0
   -2.7947   -1.6345   -0.7132 H   0  0  0  0  0  0  0  0  0  0  0  0
   -4.1488   -1.1339    0.3039 H   0  0  0  0  0  0  0  0  0  0  0  0
    0.6791    1.7019    0.0366 H   0  0  0  0  0  0  0  0  0  0  0  0
    1.3855   -0.5981   -1.8905 H   0  0  0  0  0  0  0  0  0  0  0  0
    3.2453    0.9194   -2.5367 H   0  0  0  0  0  0  0  0  0  0  0  0
    4.7426    3.2411   -0.7700 H   0  0  0  0  0  0  0  0  0  0  0  0
    6.3912   -0.4863   -0.7369 H   0  0  0  0  0  0  0  0  0  0  0  0
    4.8201   -0.4439   -1.4317 H   0  0  0  0  0  0  0  0  0  0  0  0
    5.3455   -1.6744    0.7809 H   0  0  0  0  0  0  0  0  0  0  0  0
    3.2666    0.3362    1.1969 H   0  0  0  0  0  0  0  0  0  0  0  0
    3.1452   -2.7209    1.3564 H   0  0  0  0  0  0  0  0  0  0  0  0
    1.1841   -2.0311    2.7874 H   0  0  0  0  0  0  0  0  0  0  0  0
    1.1640   -0.4253    2.0634 H   0  0  0  0  0  0  0  0  0  0  0  0
    0.4537   -3.1345    0.6873 H   0  0  0  0  0  0  0  0  0  0  0  0
  1  2  1  0
  2  3  1  0
  3  4  1  0
  4  5  1  0
  5  6  1  0
  6  7  1  0
  7  8  1  0
  3  9  1  0
  9 10  1  0
 10 11  2  3
 11 12  1  0
 12 13  2  3
 13 14  1  0
 14 15  2  3
 15 16  1  0
 16 17  1  0
 17 18  1  0
 18 19  2  3
 19 20  1  0
 20 21  1  0
 21 22  2  3
  8  4  1  0
 22  9  1  0
  1 23  1  0
  1 24  1  0
  1 25  1  0
  2 26  1  0
  2 27  1  0
  3 28  1  1
  4 29  1  0
  5 30  1  0
  5 31  1  0
  6 32  1  0
  6 33  1  0
  7 34  1  0
  7 35  1  0
  8 36  1  0
  8 37  1  0
 10 38  1  0
 11 39  1  0
 12 40  1  0
 14 41  1  0
 16 42  1  0
 16 43  1  0
 17 44  1  0
 18 45  1  0
 19 46  1  0
 20 47  1  0
 20 48  1  0
 21 49  1  0
M  END
>  <candidate_id>  (6) 
CAND_03abc0c2b1

>  <source_generator>  (6) 
selfies

>  <parent_mol_id>  (6) 
JAK2_0363b39a60

>  <canonical_smiles>  (6) 
CC[C@H](C1CCCC1)N1C=CC=NC=NCNC=CCC=N1

>  <inchikey>  (6) 
GAQPRICSTOFNRO-QGZVFWFLSA-N

>  <valid_rdkit>  (6) 
True

>  <unique_flag>  (6) 
True

>  <novel_flag>  (6) 
True

>  <mw>  (6) 
301.438

>  <logp>  (6) 
3.3203

>  <tpsa>  (6) 
52.35

>  <hbd>  (6) 
1

>  <hba>  (6) 
5

>  <rotatable_bonds>  (6) 
3

>  <qed>  (6) 
0.8691

>  <sa_score>  (6) 
3.325

>  <murcko_scaffold>  (6) 
C1=CN(CC2CCCC2)N=CCC=CNCN=CN=C1

>  <max_ring_size>  (6) 
14

>  <has_macrocycle_12_20>  (6) 
True

>  <has_constrained_ring_8_11>  (6) 
False

>  <passes_basic_filters>  (6) 
True

>  <generation_notes>  (6) 
selfies_token_mutation

>  <best_score>  (6) 
nan

>  <qed_admet>  (6) 
0.8691

>  <sa_score_admet>  (6) 
3.325

>  <mw_admet>  (6) 
301.438

>  <logp_admet>  (6) 
3.3203

>  <tpsa_admet>  (6) 
52.35

>  <hbd_admet>  (6) 
1

>  <hba_admet>  (6) 
5

>  <rotatable_bonds_admet>  (6) 
3

>  <lipinski_violations>  (6) 
0

>  <veber_pass>  (6) 
True

>  <admet_score>  (6) 
0.941095

>  <synthesis_score>  (6) 
0.741667

>  <safety_proxy_score>  (6) 
1.0

>  <main_risk>  (6) 
no_major_descriptor_risk

>  <pose_score>  (6) 
0.5

>  <pose_decision>  (6) 
nan

>  <contacts_within_4A>  (6) 
nan

>  <hard_clashes_lt_1_8A>  (6) 
nan

>  <smiles>  (6) 
CC[C@H](C1CCCC1)N1C=CC=NC=NCNC=CCC=N1

>  <docking_score>  (6) 
nan

>  <diversity_cluster>  (6) 
scaffold_2e71ee82

>  <docking_score_scaled>  (6) 
0.0

>  <novelty_score>  (6) 
1.0

>  <final_weighted_score>  (6) 
0.524469

>  <rank>  (6) 
184

>  <decision>  (6) 
await_docking

>  <diverse_rank>  (6) 
163

>  <selection_tier>  (6) 
await_docking

$$$$
CAND_d8ca5c309a
     RDKit          3D

 41 42  0  0  0  0  0  0  0  0999 V2000
   -0.6881    0.4566   -4.1747 C   0  0  0  0  0  0  0  0  0  0  0  0
    0.3741    0.7183   -3.1203 C   0  0  0  0  0  0  0  0  0  0  0  0
    1.6004    0.5914   -3.5291 N   0  0  0  0  0  0  0  0  0  0  0  0
    2.6496    0.6829   -2.6497 C   0  0  0  0  0  0  0  0  0  0  0  0
    2.9225   -0.1476   -1.6311 C   0  0  0  0  0  0  0  0  0  0  0  0
    2.1138   -1.1761   -1.3095 F   0  0  0  0  0  0  0  0  0  0  0  0
    4.1417    0.0530   -0.8090 C   0  0  0  0  0  0  0  0  0  0  0  0
    4.4918   -0.4136    0.3485 N   0  0  0  0  0  0  0  0  0  0  0  0
    3.5617   -1.2425    0.9706 N   0  0  0  0  0  0  0  0  0  0  0  0
    3.7942   -1.3106    2.2454 C   0  0  0  0  0  0  0  0  0  0  0  0
    3.0544   -2.0530    3.1271 N   0  0  0  0  0  0  0  0  0  0  0  0
    1.7941   -2.2540    2.9432 C   0  0  0  0  0  0  0  0  0  0  0  0
    1.0229   -3.1927    4.1821 Cl  0  0  0  0  0  0  0  0  0  0  0  0
    0.9508   -1.7790    1.8269 C   0  0  0  0  0  0  0  0  0  0  0  0
    0.2485   -0.6393    1.9321 C   0  0  0  0  0  0  0  0  0  0  0  0
   -0.3838   -0.0038    0.7258 C   0  0  0  0  0  0  0  0  0  0  0  0
   -1.8480    0.1628    0.7751 N   0  0  0  0  0  0  0  0  0  0  0  0
   -2.6573    0.3324    1.8617 C   0  0  0  0  0  0  0  0  0  0  0  0
   -3.9423    0.4682    1.3806 C   0  0  0  0  0  0  0  0  0  0  0  0
   -5.1909    0.6620    2.1505 C   0  0  0  0  0  0  0  0  0  0  0  0
   -3.7963    0.3971   -0.0227 C   0  0  0  0  0  0  0  0  0  0  0  0
   -2.5278    0.2273   -0.4067 N   0  0  0  0  0  0  0  0  0  0  0  0
    0.3284    1.2641    0.4813 N   0  0  0  0  0  0  0  0  0  0  0  0
    0.4318    1.5850   -0.7601 C   0  0  0  0  0  0  0  0  0  0  0  0
   -0.1215    1.0081   -1.8676 N   0  0  0  0  0  0  0  0  0  0  0  0
   -1.1712   -0.5018   -3.9648 H   0  0  0  0  0  0  0  0  0  0  0  0
   -0.2458    0.4244   -5.1743 H   0  0  0  0  0  0  0  0  0  0  0  0
   -1.4405    1.2500   -4.1445 H   0  0  0  0  0  0  0  0  0  0  0  0
    3.3439    1.4884   -2.8801 H   0  0  0  0  0  0  0  0  0  0  0  0
    4.8763    0.7411   -1.2627 H   0  0  0  0  0  0  0  0  0  0  0  0
    4.6487   -0.7674    2.6909 H   0  0  0  0  0  0  0  0  0  0  0  0
    1.0600   -2.3264    0.8966 H   0  0  0  0  0  0  0  0  0  0  0  0
    0.2318   -0.0765    2.8608 H   0  0  0  0  0  0  0  0  0  0  0  0
   -0.2300   -0.7050   -0.1085 H   0  0  0  0  0  0  0  0  0  0  0  0
   -2.2661    0.3421    2.8695 H   0  0  0  0  0  0  0  0  0  0  0  0
   -5.5465    1.6918    2.0471 H   0  0  0  0  0  0  0  0  0  0  0  0
   -5.0352    0.4595    3.2147 H   0  0  0  0  0  0  0  0  0  0  0  0
   -5.9746   -0.0119    1.7903 H   0  0  0  0  0  0  0  0  0  0  0  0
   -4.5688    0.4680   -0.7785 H   0  0  0  0  0  0  0  0  0  0  0  0
    1.0750    2.4427   -1.0213 H   0  0  0  0  0  0  0  0  0  0  0  0
   -1.0819    0.6838   -1.7054 H   0  0  0  0  0  0  0  0  0  0  0  0
  1  2  1  0
  2  3  2  3
  3  4  1  0
  4  5  2  3
  5  6  1  0
  5  7  1  0
  7  8  2  3
  8  9  1  0
  9 10  2  3
 10 11  1  0
 11 12  2  3
 12 13  1  0
 12 14  1  0
 14 15  2  3
 15 16  1  0
 16 17  1  0
 17 18  1  0
 18 19  2  0
 19 20  1  0
 19 21  1  0
 21 22  2  0
 16 23  1  0
 23 24  2  3
 24 25  1  0
 25  2  1  0
 22 17  1  0
  1 26  1  0
  1 27  1  0
  1 28  1  0
  4 29  1  0
  7 30  1  0
 10 31  1  0
 14 32  1  0
 15 33  1  0
 16 34  1  0
 18 35  1  0
 20 36  1  0
 20 37  1  0
 20 38  1  0
 21 39  1  0
 24 40  1  0
 25 41  1  0
M  END
>  <candidate_id>  (7) 
CAND_d8ca5c309a

>  <source_generator>  (7) 
selfies

>  <parent_mol_id>  (7) 
JAK2_3bd770708d

>  <canonical_smiles>  (7) 
CC1=NC=C(F)C=NN=CN=C(Cl)C=CC(n2cc(C)cn2)N=CN1

>  <inchikey>  (7) 
LZINLSBHLHFGNC-UHFFFAOYSA-N

>  <valid_rdkit>  (7) 
True

>  <unique_flag>  (7) 
True

>  <novel_flag>  (7) 
True

>  <mw>  (7) 
362.8

>  <logp>  (7) 
2.7585

>  <tpsa>  (7) 
91.65

>  <hbd>  (7) 
1

>  <hba>  (7) 
7

>  <rotatable_bonds>  (7) 
1

>  <qed>  (7) 
0.8315

>  <sa_score>  (7) 
3.146

>  <murcko_scaffold>  (7) 
C1=CN=CNC=NC(n2cccn2)C=CC=NC=NN=C1

>  <max_ring_size>  (7) 
16

>  <has_macrocycle_12_20>  (7) 
True

>  <has_constrained_ring_8_11>  (7) 
False

>  <passes_basic_filters>  (7) 
True

>  <generation_notes>  (7) 
selfies_token_mutation

>  <best_score>  (7) 
nan

>  <qed_admet>  (7) 
0.8315

>  <sa_score_admet>  (7) 
3.146

>  <mw_admet>  (7) 
362.8

>  <logp_admet>  (7) 
2.7585

>  <tpsa_admet>  (7) 
91.65

>  <hbd_admet>  (7) 
1

>  <hba_admet>  (7) 
7

>  <rotatable_bonds_admet>  (7) 
1

>  <lipinski_violations>  (7) 
0

>  <veber_pass>  (7) 
True

>  <admet_score>  (7) 
0.924175

>  <synthesis_score>  (7) 
0.761556

>  <safety_proxy_score>  (7) 
1.0

>  <main_risk>  (7) 
no_major_descriptor_risk

>  <pose_score>  (7) 
0.5

>  <pose_decision>  (7) 
nan

>  <contacts_within_4A>  (7) 
nan

>  <hard_clashes_lt_1_8A>  (7) 
nan

>  <smiles>  (7) 
CC1=NC=C(F)C=NN=CN=C(Cl)C=CC(n2cc(C)cn2)N=CN1

>  <docking_score>  (7) 
nan

>  <diversity_cluster>  (7) 
scaffold_a2d5d321

>  <docking_score_scaled>  (7) 
0.0

>  <novelty_score>  (7) 
1.0

>  <final_weighted_score>  (7) 
0.524068

>  <rank>  (7) 
194

>  <decision>  (7) 
await_docking

>  <diverse_rank>  (7) 
171

>  <selection_tier>  (7) 
await_docking

$$$$
CAND_dad5236b95
     RDKit          3D

 46 48  0  0  0  0  0  0  0  0999 V2000
   -6.6210   -1.2939    0.2076 C   0  0  0  0  0  0  0  0  0  0  0  0
   -5.2881   -0.6726   -0.1461 C   0  0  0  0  0  0  0  0  0  0  0  0
   -4.1550   -1.3793    0.0581 C   0  0  0  0  0  0  0  0  0  0  0  0
   -2.7831   -0.9945   -0.2277 C   0  0  0  0  0  0  0  0  0  0  0  0
   -1.7575   -1.4763    0.4884 C   0  0  0  0  0  0  0  0  0  0  0  0
   -0.2928   -1.1311    0.4170 C   0  0  0  0  0  0  0  0  0  0  0  0
    0.4341   -2.1968    0.6332 N   0  0  0  0  0  0  0  0  0  0  0  0
    1.8860   -2.0101    0.5225 C   0  0  0  0  0  0  0  0  0  0  0  0
    2.3921   -0.6382    0.3970 N   0  0  0  0  0  0  0  0  0  0  0  0
    3.7113   -0.2972    0.0431 C   0  0  0  0  0  0  0  0  0  0  0  0
    4.6927   -1.2145   -0.1056 C   0  0  0  0  0  0  0  0  0  0  0  0
    6.0566   -1.0029   -0.5389 C   0  0  0  0  0  0  0  0  0  0  0  0
    6.8005    0.1119   -0.5284 C   0  0  0  0  0  0  0  0  0  0  0  0
    6.5120    1.3741   -0.1102 O   0  0  0  0  0  0  0  0  0  0  0  0
    5.2986    1.5819    0.6102 C   0  0  0  0  0  0  0  0  0  0  0  0
    4.0525    1.1756   -0.1733 C   0  0  0  0  0  0  0  0  0  0  0  0
    1.5060    0.3594    0.7997 N   0  0  0  0  0  0  0  0  0  0  0  0
    0.2404    0.1432    0.2186 N   0  0  0  0  0  0  0  0  0  0  0  0
   -0.4257    1.3096   -0.3323 C   0  0  0  0  0  0  0  0  0  0  0  0
   -1.2584    1.9682    0.6417 O   0  0  0  0  0  0  0  0  0  0  0  0
   -2.4410    2.3411    0.0513 C   0  0  0  0  0  0  0  0  0  0  0  0
   -3.6083    1.8520    0.4797 C   0  0  0  0  0  0  0  0  0  0  0  0
   -4.7398    1.7948   -0.4109 C   0  0  0  0  0  0  0  0  0  0  0  0
   -5.4315    0.6769   -0.6950 C   0  0  0  0  0  0  0  0  0  0  0  0
   -7.2495   -1.3933   -0.6845 H   0  0  0  0  0  0  0  0  0  0  0  0
   -7.1508   -0.6746    0.9401 H   0  0  0  0  0  0  0  0  0  0  0  0
   -6.5128   -2.2932    0.6434 H   0  0  0  0  0  0  0  0  0  0  0  0
   -4.2504   -2.3635    0.5200 H   0  0  0  0  0  0  0  0  0  0  0  0
   -2.6353   -0.2816   -1.0268 H   0  0  0  0  0  0  0  0  0  0  0  0
   -1.9498   -2.2353    1.2456 H   0  0  0  0  0  0  0  0  0  0  0  0
    2.3418   -2.4652    1.4100 H   0  0  0  0  0  0  0  0  0  0  0  0
    2.2122   -2.5966   -0.3447 H   0  0  0  0  0  0  0  0  0  0  0  0
    4.4697   -2.2661    0.0580 H   0  0  0  0  0  0  0  0  0  0  0  0
    6.5312   -1.9008   -0.9355 H   0  0  0  0  0  0  0  0  0  0  0  0
    7.8110    0.1060   -0.9257 H   0  0  0  0  0  0  0  0  0  0  0  0
    5.2509    2.6607    0.7996 H   0  0  0  0  0  0  0  0  0  0  0  0
    5.3602    1.0991    1.5941 H   0  0  0  0  0  0  0  0  0  0  0  0
    4.1771    1.3624   -1.2474 H   0  0  0  0  0  0  0  0  0  0  0  0
    3.2417    1.8291    0.1613 H   0  0  0  0  0  0  0  0  0  0  0  0
    1.4101    0.3383    1.8218 H   0  0  0  0  0  0  0  0  0  0  0  0
   -0.9646    1.0226   -1.2440 H   0  0  0  0  0  0  0  0  0  0  0  0
    0.3202    2.0472   -0.6580 H   0  0  0  0  0  0  0  0  0  0  0  0
   -2.3131    2.8850   -0.8772 H   0  0  0  0  0  0  0  0  0  0  0  0
   -3.6367    1.2467    1.3829 H   0  0  0  0  0  0  0  0  0  0  0  0
   -4.9934    2.7140   -0.9359 H   0  0  0  0  0  0  0  0  0  0  0  0
   -6.2501    0.7780   -1.4094 H   0  0  0  0  0  0  0  0  0  0  0  0
  1  2  1  0
  2  3  2  3
  3  4  1  0
  4  5  2  3
  5  6  1  0
  6  7  2  0
  7  8  1  0
  8  9  1  0
  9 10  1  0
 10 11  2  0
 11 12  1  0
 12 13  2  0
 13 14  1  0
 14 15  1  0
 15 16  1  0
  9 17  1  0
 17 18  1  0
 18 19  1  0
 19 20  1  0
 20 21  1  0
 21 22  2  3
 22 23  1  0
 23 24  2  3
 24  2  1  0
 18  6  1  0
 16 10  1  0
  1 25  1  0
  1 26  1  0
  1 27  1  0
  3 28  1  0
  4 29  1  0
  5 30  1  0
  8 31  1  0
  8 32  1  0
 11 33  1  0
 12 34  1  0
 13 35  1  0
 15 36  1  0
 15 37  1  0
 16 38  1  0
 16 39  1  0
 17 40  1  0
 19 41  1  0
 19 42  1  0
 21 43  1  0
 22 44  1  0
 23 45  1  0
 24 46  1  0
M  END
>  <candidate_id>  (8) 
CAND_dad5236b95

>  <source_generator>  (8) 
selfies

>  <parent_mol_id>  (8) 
JAK2_0c0d246793

>  <canonical_smiles>  (8) 
CC1=CC=CC2=NCN(C3=CC=COCC3)NN2COC=CC=C1

>  <inchikey>  (8) 
JSTGOIPNEYWXLT-UHFFFAOYSA-N

>  <valid_rdkit>  (8) 
True

>  <unique_flag>  (8) 
True

>  <novel_flag>  (8) 
True

>  <mw>  (8) 
326.4

>  <logp>  (8) 
2.7576

>  <tpsa>  (8) 
49.33

>  <hbd>  (8) 
1

>  <hba>  (8) 
6

>  <rotatable_bonds>  (8) 
1

>  <qed>  (8) 
0.8028

>  <sa_score>  (8) 
3.075

>  <murcko_scaffold>  (8) 
C1=CC=COCN2NN(C3=CC=COCC3)CN=C2C=CC=C1

>  <max_ring_size>  (8) 
12

>  <has_macrocycle_12_20>  (8) 
True

>  <has_constrained_ring_8_11>  (8) 
False

>  <passes_basic_filters>  (8) 
True

>  <generation_notes>  (8) 
selfies_token_mutation

>  <best_score>  (8) 
nan

>  <qed_admet>  (8) 
0.8028

>  <sa_score_admet>  (8) 
3.075

>  <mw_admet>  (8) 
326.4

>  <logp_admet>  (8) 
2.7576

>  <tpsa_admet>  (8) 
49.33

>  <hbd_admet>  (8) 
1

>  <hba_admet>  (8) 
6

>  <rotatable_bonds_admet>  (8) 
1

>  <lipinski_violations>  (8) 
0

>  <veber_pass>  (8) 
True

>  <admet_score>  (8) 
0.91126

>  <synthesis_score>  (8) 
0.769444

>  <safety_proxy_score>  (8) 
1.0

>  <main_risk>  (8) 
no_major_descriptor_risk

>  <pose_score>  (8) 
0.5

>  <pose_decision>  (8) 
nan

>  <contacts_within_4A>  (8) 
nan

>  <hard_clashes_lt_1_8A>  (8) 
nan

>  <smiles>  (8) 
CC1=CC=CC2=NCN(C3=CC=COCC3)NN2COC=CC=C1

>  <docking_score>  (8) 
nan

>  <diversity_cluster>  (8) 
scaffold_5335a1f3

>  <docking_score_scaled>  (8) 
0.0

>  <novelty_score>  (8) 
1.0

>  <final_weighted_score>  (8) 
0.522669

>  <rank>  (8) 
219

>  <decision>  (8) 
await_docking

>  <diverse_rank>  (8) 
187

>  <selection_tier>  (8) 
await_docking

$$$$
CAND_5bcd4c7daf
     RDKit          3D

 35 36  0  0  0  0  0  0  0  0999 V2000
   -3.2158   -0.2194   -2.8078 C   0  0  0  0  0  0  0  0  0  0  0  0
   -2.8915    0.2527   -1.4160 C   0  0  0  0  0  0  0  0  0  0  0  0
   -2.3297    1.4588   -1.1950 C   0  0  0  0  0  0  0  0  0  0  0  0
   -2.0721    2.0493    0.1039 C   0  0  0  0  0  0  0  0  0  0  0  0
   -1.0230    2.8207    0.4290 C   0  0  0  0  0  0  0  0  0  0  0  0
    0.1390    3.0608   -0.3970 C   0  0  0  0  0  0  0  0  0  0  0  0
    1.2715    2.3580   -0.2576 C   0  0  0  0  0  0  0  0  0  0  0  0
    1.4244    1.3778    0.7186 O   0  0  0  0  0  0  0  0  0  0  0  0
    1.7011    0.1790    0.1744 C   0  0  0  0  0  0  0  0  0  0  0  0
    2.1871   -0.2451   -0.9475 N   0  0  0  0  0  0  0  0  0  0  0  0
    1.9551   -1.5638   -0.5638 N   0  0  0  0  0  0  0  0  0  0  0  0
    1.4561   -1.1942    0.7487 C   0  0  0  0  0  0  0  0  0  0  0  0
    2.2602   -1.7069    1.8006 N   0  0  0  0  0  0  0  0  0  0  0  0
    3.5608   -1.4330    2.1300 C   0  0  0  0  0  0  0  0  0  0  0  0
    4.2448   -1.9339    3.1607 C   0  0  0  0  0  0  0  0  0  0  0  0
    5.8764   -1.5215    3.4803 Cl  0  0  0  0  0  0  0  0  0  0  0  0
    0.0749   -1.5858    1.0224 N   0  0  0  0  0  0  0  0  0  0  0  0
   -0.8072   -1.1543    0.1794 C   0  0  0  0  0  0  0  0  0  0  0  0
   -2.2589   -1.3638    0.3742 C   0  0  0  0  0  0  0  0  0  0  0  0
   -3.1752   -0.7216   -0.3696 C   0  0  0  0  0  0  0  0  0  0  0  0
   -2.9610    0.5296   -3.5653 H   0  0  0  0  0  0  0  0  0  0  0  0
   -2.6583   -1.1320   -3.0458 H   0  0  0  0  0  0  0  0  0  0  0  0
   -4.2865   -0.4314   -2.9014 H   0  0  0  0  0  0  0  0  0  0  0  0
   -2.0665    2.0835   -2.0477 H   0  0  0  0  0  0  0  0  0  0  0  0
   -2.8220    1.8582    0.8704 H   0  0  0  0  0  0  0  0  0  0  0  0
   -0.9643    3.2256    1.4383 H   0  0  0  0  0  0  0  0  0  0  0  0
    0.0643    3.8375   -1.1521 H   0  0  0  0  0  0  0  0  0  0  0  0
    2.1595    2.5021   -0.8606 H   0  0  0  0  0  0  0  0  0  0  0  0
    2.8319   -2.0839   -0.5284 H   0  0  0  0  0  0  0  0  0  0  0  0
    1.7328   -2.3381    2.3932 H   0  0  0  0  0  0  0  0  0  0  0  0
    4.0483   -0.7305    1.4550 H   0  0  0  0  0  0  0  0  0  0  0  0
    3.8451   -2.6348    3.8810 H   0  0  0  0  0  0  0  0  0  0  0  0
   -0.5276   -0.5911   -0.7265 H   0  0  0  0  0  0  0  0  0  0  0  0
   -2.5451   -2.0623    1.1514 H   0  0  0  0  0  0  0  0  0  0  0  0
   -4.2285   -0.9462   -0.2129 H   0  0  0  0  0  0  0  0  0  0  0  0
  1  2  1  0
  2  3  2  3
  3  4  1  0
  4  5  2  3
  5  6  1  0
  6  7  2  3
  7  8  1  0
  8  9  1  0
  9 10  2  0
 10 11  1  0
 11 12  1  0
 12 13  1  0
 13 14  1  0
 14 15  2  3
 15 16  1  0
 12 17  1  0
 17 18  2  3
 18 19  1  0
 19 20  2  3
 20  2  1  0
 12  9  1  0
  1 21  1  0
  1 22  1  0
  1 23  1  0
  3 24  1  0
  4 25  1  0
  5 26  1  0
  6 27  1  0
  7 28  1  0
 11 29  1  0
 13 30  1  0
 14 31  1  0
 15 32  1  0
 18 33  1  0
 19 34  1  0
 20 35  1  0
M  END
>  <candidate_id>  (9) 
CAND_5bcd4c7daf

>  <source_generator>  (9) 
selfies

>  <parent_mol_id>  (9) 
JAK2_67619c76a6

>  <canonical_smiles>  (9) 
CC1=CC=CC=COC2=NNC2(NC=CCl)N=CC=C1

>  <inchikey>  (9) 
CQXVHANXFGMWDN-UHFFFAOYSA-N

>  <valid_rdkit>  (9) 
True

>  <unique_flag>  (9) 
True

>  <novel_flag>  (9) 
True

>  <mw>  (9) 
290.754

>  <logp>  (9) 
2.5299

>  <tpsa>  (9) 
58.01

>  <hbd>  (9) 
2

>  <hba>  (9) 
5

>  <rotatable_bonds>  (9) 
2

>  <qed>  (9) 
0.8215

>  <sa_score>  (9) 
3.2

>  <murcko_scaffold>  (9) 
C1=CC=CC=NC2NN=C2OC=CC=C1

>  <max_ring_size>  (9) 
13

>  <has_macrocycle_12_20>  (9) 
True

>  <has_constrained_ring_8_11>  (9) 
False

>  <passes_basic_filters>  (9) 
True

>  <generation_notes>  (9) 
selfies_token_mutation

>  <best_score>  (9) 
nan

>  <qed_admet>  (9) 
0.8215

>  <sa_score_admet>  (9) 
3.2

>  <mw_admet>  (9) 
290.754

>  <logp_admet>  (9) 
2.5299

>  <tpsa_admet>  (9) 
58.01

>  <hbd_admet>  (9) 
2

>  <hba_admet>  (9) 
5

>  <rotatable_bonds_admet>  (9) 
2

>  <lipinski_violations>  (9) 
0

>  <veber_pass>  (9) 
True

>  <admet_score>  (9) 
0.919675

>  <synthesis_score>  (9) 
0.755556

>  <safety_proxy_score>  (9) 
1.0

>  <main_risk>  (9) 
no_major_descriptor_risk

>  <pose_score>  (9) 
0.5

>  <pose_decision>  (9) 
nan

>  <contacts_within_4A>  (9) 
nan

>  <hard_clashes_lt_1_8A>  (9) 
nan

>  <smiles>  (9) 
CC1=CC=CC=COC2=NNC2(NC=CCl)N=CC=C1

>  <docking_score>  (9) 
nan

>  <diversity_cluster>  (9) 
scaffold_3f213f09

>  <docking_score_scaled>  (9) 
0.0

>  <novelty_score>  (9) 
1.0

>  <final_weighted_score>  (9) 
0.522268

>  <rank>  (9) 
227

>  <decision>  (9) 
await_docking

>  <diverse_rank>  (9) 
191

>  <selection_tier>  (9) 
await_docking

$$$$
CAND_3404dcdd42
     RDKit          3D

 41 43  0  0  0  0  0  0  0  0999 V2000
   -4.4888    1.4176   -1.2713 C   0  0  0  0  0  0  0  0  0  0  0  0
   -3.1336    0.7524   -1.0067 C   0  0  1  0  0  0  0  0  0  0  0  0
   -3.1208   -0.6708   -1.6132 C   0  0  0  0  0  0  0  0  0  0  0  0
   -2.0969   -1.5917   -0.9966 C   0  0  0  0  0  0  0  0  0  0  0  0
   -2.2934   -2.1422    0.2084 C   0  0  0  0  0  0  0  0  0  0  0  0
   -1.4428   -3.0716    0.9017 C   0  0  0  0  0  0  0  0  0  0  0  0
   -0.1145   -3.1471    1.0501 C   0  0  0  0  0  0  0  0  0  0  0  0
    0.9351   -2.4358    0.5373 N   0  0  0  0  0  0  0  0  0  0  0  0
    1.1653   -1.2054    0.8928 C   0  0  0  0  0  0  0  0  0  0  0  0
    2.4775   -0.7367    0.6361 N   0  0  0  0  0  0  0  0  0  0  0  0
    3.4000   -1.3465   -0.1901 C   0  0  0  0  0  0  0  0  0  0  0  0
    4.5161   -0.6622   -0.3006 N   0  0  0  0  0  0  0  0  0  0  0  0
    4.3560    0.4103    0.5355 C   0  0  0  0  0  0  0  0  0  0  0  0
    5.2498    1.4425    0.8201 C   0  0  0  0  0  0  0  0  0  0  0  0
    4.8117    2.3827    1.7357 C   0  0  0  0  0  0  0  0  0  0  0  0
    3.6096    2.3528    2.3551 N   0  0  0  0  0  0  0  0  0  0  0  0
    2.7450    1.3460    2.0852 C   0  0  0  0  0  0  0  0  0  0  0  0
    3.1093    0.3847    1.1529 C   0  0  0  0  0  0  0  0  0  0  0  0
    0.2111   -0.4330    1.5174 N   0  0  0  0  0  0  0  0  0  0  0  0
   -0.3278    0.5208    0.8171 C   0  0  0  0  0  0  0  0  0  0  0  0
    0.0742    1.0457   -0.5152 C   0  0  0  0  0  0  0  0  0  0  0  0
   -0.7418    1.5351   -1.4522 C   0  0  0  0  0  0  0  0  0  0  0  0
   -2.1002    1.5870   -1.6125 N   0  0  0  0  0  0  0  0  0  0  0  0
   -4.5051    2.4380   -0.8724 H   0  0  0  0  0  0  0  0  0  0  0  0
   -5.2984    0.8563   -0.7932 H   0  0  0  0  0  0  0  0  0  0  0  0
   -4.7026    1.4772   -2.3445 H   0  0  0  0  0  0  0  0  0  0  0  0
   -3.0057    0.7153    0.0795 H   0  0  0  0  0  0  0  0  0  0  0  0
   -2.9471   -0.6270   -2.6960 H   0  0  0  0  0  0  0  0  0  0  0  0
   -4.1086   -1.1348   -1.4876 H   0  0  0  0  0  0  0  0  0  0  0  0
   -1.1925   -1.7997   -1.5621 H   0  0  0  0  0  0  0  0  0  0  0  0
   -3.2215   -1.9267    0.7377 H   0  0  0  0  0  0  0  0  0  0  0  0
   -2.0185   -3.8159    1.4551 H   0  0  0  0  0  0  0  0  0  0  0  0
    0.2317   -3.9775    1.6685 H   0  0  0  0  0  0  0  0  0  0  0  0
    3.1804   -2.2768   -0.6996 H   0  0  0  0  0  0  0  0  0  0  0  0
    6.2256    1.4952    0.3573 H   0  0  0  0  0  0  0  0  0  0  0  0
    5.4477    3.2194    2.0133 H   0  0  0  0  0  0  0  0  0  0  0  0
    1.8067    1.3518    2.6261 H   0  0  0  0  0  0  0  0  0  0  0  0
   -1.1695    1.0606    1.2827 H   0  0  0  0  0  0  0  0  0  0  0  0
    1.1380    1.1147   -0.7063 H   0  0  0  0  0  0  0  0  0  0  0  0
   -0.2550    1.9827   -2.3216 H   0  0  0  0  0  0  0  0  0  0  0  0
   -2.4052    2.1126   -2.4313 H   0  0  0  0  0  0  0  0  0  0  0  0
  1  2  1  0
  2  3  1  0
  3  4  1  0
  4  5  2  3
  5  6  1  0
  6  7  2  3
  7  8  1  0
  8  9  2  3
  9 10  1  0
 10 11  1  0
 11 12  2  0
 12 13  1  0
 13 14  2  0
 14 15  1  0
 15 16  2  0
 16 17  1  0
 17 18  2  0
  9 19  1  0
 19 20  2  3
 20 21  1  0
 21 22  2  3
 22 23  1  0
 23  2  1  0
 18 10  1  0
 18 13  1  0
  1 24  1  0
  1 25  1  0
  1 26  1  0
  2 27  1  1
  3 28  1  0
  3 29  1  0
  4 30  1  0
  5 31  1  0
  6 32  1  0
  7 33  1  0
 11 34  1  0
 14 35  1  0
 15 36  1  0
 17 37  1  0
 20 38  1  0
 21 39  1  0
 22 40  1  0
 23 41  1  0
M  END
>  <candidate_id>  (10) 
CAND_3404dcdd42

>  <source_generator>  (10) 
selfies

>  <parent_mol_id>  (10) 
JAK2_efc2226329

>  <canonical_smiles>  (10) 
C[C@H]1CC=CC=CN=C(n2cnc3ccncc32)N=CC=CN1

>  <inchikey>  (10) 
XFOXGXDMIZLACU-AWEZNQCLSA-N

>  <valid_rdkit>  (10) 
True

>  <unique_flag>  (10) 
True

>  <novel_flag>  (10) 
True

>  <mw>  (10) 
306.373

>  <logp>  (10) 
2.6716

>  <tpsa>  (10) 
67.46

>  <hbd>  (10) 
1

>  <hba>  (10) 
5

>  <rotatable_bonds>  (10) 
0

>  <qed>  (10) 
0.8134

>  <sa_score>  (10) 
3.2

>  <murcko_scaffold>  (10) 
C1=CCCNC=CC=NC(n2cnc3ccncc32)=NC=C1

>  <max_ring_size>  (10) 
13

>  <has_macrocycle_12_20>  (10) 
True

>  <has_constrained_ring_8_11>  (10) 
False

>  <passes_basic_filters>  (10) 
True

>  <generation_notes>  (10) 
selfies_token_mutation

>  <best_score>  (10) 
nan

>  <qed_admet>  (10) 
0.8134

>  <sa_score_admet>  (10) 
3.2

>  <mw_admet>  (10) 
306.373

>  <logp_admet>  (10) 
2.6716

>  <tpsa_admet>  (10) 
67.46

>  <hbd_admet>  (10) 
1

>  <hba_admet>  (10) 
5

>  <rotatable_bonds_admet>  (10) 
0

>  <lipinski_violations>  (10) 
0

>  <veber_pass>  (10) 
True

>  <admet_score>  (10) 
0.91603

>  <synthesis_score>  (10) 
0.755556

>  <safety_proxy_score>  (10) 
1.0

>  <main_risk>  (10) 
no_major_descriptor_risk

>  <pose_score>  (10) 
0.5

>  <pose_decision>  (10) 
nan

>  <contacts_within_4A>  (10) 
nan

>  <hard_clashes_lt_1_8A>  (10) 
nan

>  <smiles>  (10) 
C[C@H]1CC=CC=CN=C(n2cnc3ccncc32)N=CC=CN1

>  <docking_score>  (10) 
nan

>  <diversity_cluster>  (10) 
scaffold_fb7e6450

>  <docking_score_scaled>  (10) 
0.0

>  <novelty_score>  (10) 
1.0

>  <final_weighted_score>  (10) 
0.521539

>  <rank>  (10) 
244

>  <decision>  (10) 
await_docking

>  <diverse_rank>  (10) 
205

>  <selection_tier>  (10) 
await_docking

$$$$
CAND_8f55b07da4
     RDKit          3D

 38 39  0  0  0  0  0  0  0  0999 V2000
    1.6383    0.5251    3.0649 F   0  0  0  0  0  0  0  0  0  0  0  0
    1.9253   -0.7082    3.5104 C   0  0  0  0  0  0  0  0  0  0  0  0
    2.2765   -1.7270    2.7260 C   0  0  0  0  0  0  0  0  0  0  0  0
    2.4435   -1.8540    1.3699 N   0  0  0  0  0  0  0  0  0  0  0  0
    2.3339   -0.9795    0.3175 C   0  0  0  0  0  0  0  0  0  0  0  0
    2.0727    0.2923    0.4427 N   0  0  0  0  0  0  0  0  0  0  0  0
    2.0352    1.0474   -0.6746 N   0  0  0  0  0  0  0  0  0  0  0  0
    1.1834    2.1637   -0.4249 N   0  0  0  0  0  0  0  0  0  0  0  0
    0.1100    2.2240   -1.4163 C   0  0  0  0  0  0  0  0  0  0  0  0
   -1.1920    2.5178   -0.8745 O   0  0  0  0  0  0  0  0  0  0  0  0
   -1.6114    1.5615    0.0191 C   0  0  0  0  0  0  0  0  0  0  0  0
   -1.3842    1.8232    1.3757 C   0  0  0  0  0  0  0  0  0  0  0  0
   -1.8162    0.9282    2.3535 C   0  0  0  0  0  0  0  0  0  0  0  0
   -2.5046   -0.2223    1.9830 C   0  0  0  0  0  0  0  0  0  0  0  0
   -2.7621   -0.4735    0.6339 C   0  0  0  0  0  0  0  0  0  0  0  0
   -2.3217    0.4141   -0.3646 C   0  0  0  0  0  0  0  0  0  0  0  0
   -2.6779    0.0781   -1.7481 C   0  0  0  0  0  0  0  0  0  0  0  0
   -1.9978   -0.6720   -2.6326 C   0  0  0  0  0  0  0  0  0  0  0  0
   -0.6629   -1.2391   -2.5740 C   0  0  0  0  0  0  0  0  0  0  0  0
    0.1218   -1.3786   -1.4966 C   0  0  0  0  0  0  0  0  0  0  0  0
    1.5492   -1.7304   -1.7065 C   0  0  0  0  0  0  0  0  0  0  0  0
    2.5582   -1.5610   -0.9118 N   0  0  0  0  0  0  0  0  0  0  0  0
    1.8304   -0.7501    4.5853 H   0  0  0  0  0  0  0  0  0  0  0  0
    2.4807   -2.6746    3.2201 H   0  0  0  0  0  0  0  0  0  0  0  0
    2.7186   -2.7752    1.0557 H   0  0  0  0  0  0  0  0  0  0  0  0
    2.9891    1.3152   -0.9389 H   0  0  0  0  0  0  0  0  0  0  0  0
    1.6727    3.0506   -0.3562 H   0  0  0  0  0  0  0  0  0  0  0  0
    0.0462    1.3360   -2.0484 H   0  0  0  0  0  0  0  0  0  0  0  0
    0.3388    3.0420   -2.1101 H   0  0  0  0  0  0  0  0  0  0  0  0
   -0.8396    2.7169    1.6675 H   0  0  0  0  0  0  0  0  0  0  0  0
   -1.6046    1.1300    3.3996 H   0  0  0  0  0  0  0  0  0  0  0  0
   -2.8424   -0.9222    2.7418 H   0  0  0  0  0  0  0  0  0  0  0  0
   -3.3110   -1.3724    0.3616 H   0  0  0  0  0  0  0  0  0  0  0  0
   -3.6558    0.4605   -2.0372 H   0  0  0  0  0  0  0  0  0  0  0  0
   -2.4782   -0.8207   -3.6014 H   0  0  0  0  0  0  0  0  0  0  0  0
   -0.2633   -1.4879   -3.5573 H   0  0  0  0  0  0  0  0  0  0  0  0
   -0.1786   -1.1077   -0.4943 H   0  0  0  0  0  0  0  0  0  0  0  0
    1.7798   -2.1703   -2.6924 H   0  0  0  0  0  0  0  0  0  0  0  0
  1  2  1  0
  2  3  2  3
  3  4  1  0
  4  5  1  0
  5  6  2  3
  6  7  1  0
  7  8  1  0
  8  9  1  0
  9 10  1  0
 10 11  1  0
 11 12  2  0
 12 13  1  0
 13 14  2  0
 14 15  1  0
 15 16  2  0
 16 17  1  0
 17 18  2  3
 18 19  1  0
 19 20  2  3
 20 21  1  0
 21 22  2  3
 22  5  1  0
 16 11  1  0
  2 23  1  0
  3 24  1  0
  4 25  1  0
  7 26  1  0
  8 27  1  0
  9 28  1  0
  9 29  1  0
 12 30  1  0
 13 31  1  0
 14 32  1  0
 15 33  1  0
 17 34  1  0
 18 35  1  0
 19 36  1  0
 20 37  1  0
 21 38  1  0
M  END
>  <candidate_id>  (11) 
CAND_8f55b07da4

>  <source_generator>  (11) 
selfies

>  <parent_mol_id>  (11) 
JAK2_d7634eac48

>  <canonical_smiles>  (11) 
FC=CNC1=NNNCOc2ccccc2C=CC=CC=N1

>  <inchikey>  (11) 
JYNXQZHTXOPYSR-UHFFFAOYSA-N

>  <valid_rdkit>  (11) 
True

>  <unique_flag>  (11) 
True

>  <novel_flag>  (11) 
True

>  <mw>  (11) 
301.325

>  <logp>  (11) 
2.0722

>  <tpsa>  (11) 
70.04

>  <hbd>  (11) 
3

>  <hba>  (11) 
6

>  <rotatable_bonds>  (11) 
1

>  <qed>  (11) 
0.7425

>  <sa_score>  (11) 
2.825

>  <murcko_scaffold>  (11) 
C1=CC=NC=NNNCOc2ccccc2C=C1

>  <max_ring_size>  (11) 
14

>  <has_macrocycle_12_20>  (11) 
True

>  <has_constrained_ring_8_11>  (11) 
False

>  <passes_basic_filters>  (11) 
True

>  <generation_notes>  (11) 
selfies_token_mutation

>  <best_score>  (11) 
nan

>  <qed_admet>  (11) 
0.7425

>  <sa_score_admet>  (11) 
2.825

>  <mw_admet>  (11) 
301.325

>  <logp_admet>  (11) 
2.0722

>  <tpsa_admet>  (11) 
70.04

>  <hbd_admet>  (11) 
3

>  <hba_admet>  (11) 
6

>  <rotatable_bonds_admet>  (11) 
1

>  <lipinski_violations>  (11) 
0

>  <veber_pass>  (11) 
True

>  <admet_score>  (11) 
0.884125

>  <synthesis_score>  (11) 
0.797222

>  <safety_proxy_score>  (11) 
1.0

>  <main_risk>  (11) 
no_major_descriptor_risk

>  <pose_score>  (11) 
0.5

>  <pose_decision>  (11) 
nan

>  <contacts_within_4A>  (11) 
nan

>  <hard_clashes_lt_1_8A>  (11) 
nan

>  <smiles>  (11) 
FC=CNC1=NNNCOc2ccccc2C=CC=CC=N1

>  <docking_score>  (11) 
nan

>  <diversity_cluster>  (11) 
scaffold_f68132e9

>  <docking_score_scaled>  (11) 
0.0

>  <novelty_score>  (11) 
1.0

>  <final_weighted_score>  (11) 
0.521408

>  <rank>  (11) 
248

>  <decision>  (11) 
await_docking

>  <diverse_rank>  (11) 
209

>  <selection_tier>  (11) 
await_docking

$$$$
CAND_395a83733f
     RDKit          3D

 34 35  0  0  0  0  0  0  0  0999 V2000
    1.6421   -4.2105   -0.6769 F   0  0  0  0  0  0  0  0  0  0  0  0
    2.7302   -3.5656   -0.1193 N   0  0  0  0  0  0  0  0  0  0  0  0
    2.4594   -2.1459    0.0933 C   0  0  0  0  0  0  0  0  0  0  0  0
    1.5926   -2.0117    1.2767 N   0  0  0  0  0  0  0  0  0  0  0  0
    1.2360   -0.7948    1.5102 C   0  0  0  0  0  0  0  0  0  0  0  0
    0.3631   -0.4562    2.6553 C   0  0  0  0  0  0  0  0  0  0  0  0
   -0.0402    0.7925    2.9314 C   0  0  0  0  0  0  0  0  0  0  0  0
    0.2504    1.9771    2.1555 C   0  0  0  0  0  0  0  0  0  0  0  0
   -0.2831    2.3008    0.9658 C   0  0  0  0  0  0  0  0  0  0  0  0
   -1.3412    1.5685    0.2473 C   0  0  0  0  0  0  0  0  0  0  0  0
   -2.6136    1.4700    0.8325 C   0  0  0  0  0  0  0  0  0  0  0  0
   -3.6596    0.8412    0.1587 C   0  0  0  0  0  0  0  0  0  0  0  0
   -3.4487    0.3211   -1.1141 C   0  0  0  0  0  0  0  0  0  0  0  0
   -2.1897    0.4176   -1.7121 C   0  0  0  0  0  0  0  0  0  0  0  0
   -1.1242    1.0226   -1.0331 C   0  0  0  0  0  0  0  0  0  0  0  0
    0.1412    1.1452   -1.5497 O   0  0  0  0  0  0  0  0  0  0  0  0
    0.5001    0.2346   -2.5819 C   0  0  0  0  0  0  0  0  0  0  0  0
    1.9370    0.0845   -2.5523 N   0  0  0  0  0  0  0  0  0  0  0  0
    2.5975   -0.6690   -1.6349 N   0  0  0  0  0  0  0  0  0  0  0  0
    1.8522   -1.5025   -1.0846 N   0  0  0  0  0  0  0  0  0  0  0  0
    2.8986   -3.9354    0.8131 H   0  0  0  0  0  0  0  0  0  0  0  0
    3.4253   -1.6798    0.3338 H   0  0  0  0  0  0  0  0  0  0  0  0
    1.5773    0.0526    0.8908 H   0  0  0  0  0  0  0  0  0  0  0  0
    0.0831   -1.2864    3.2946 H   0  0  0  0  0  0  0  0  0  0  0  0
   -0.6288    0.9621    3.8308 H   0  0  0  0  0  0  0  0  0  0  0  0
    0.9794    2.6532    2.5995 H   0  0  0  0  0  0  0  0  0  0  0  0
    0.0583    3.2003    0.4574 H   0  0  0  0  0  0  0  0  0  0  0  0
   -2.7988    1.8948    1.8164 H   0  0  0  0  0  0  0  0  0  0  0  0
   -4.6399    0.7691    0.6225 H   0  0  0  0  0  0  0  0  0  0  0  0
   -4.2667   -0.1579   -1.6467 H   0  0  0  0  0  0  0  0  0  0  0  0
   -2.0760    0.0184   -2.7149 H   0  0  0  0  0  0  0  0  0  0  0  0
    0.2402    0.6699   -3.5524 H   0  0  0  0  0  0  0  0  0  0  0  0
    0.0355   -0.7537   -2.4915 H   0  0  0  0  0  0  0  0  0  0  0  0
    2.5112    0.7733   -3.0214 H   0  0  0  0  0  0  0  0  0  0  0  0
  1  2  1  0
  2  3  1  0
  3  4  1  0
  4  5  2  3
  5  6  1  0
  6  7  2  3
  7  8  1  0
  8  9  2  3
  9 10  1  0
 10 11  2  0
 11 12  1  0
 12 13  2  0
 13 14  1  0
 14 15  2  0
 15 16  1  0
 16 17  1  0
 17 18  1  0
 18 19  1  0
 19 20  2  3
 20  3  1  0
 15 10  1  0
  2 21  1  0
  3 22  1  0
  5 23  1  0
  6 24  1  0
  7 25  1  0
  8 26  1  0
  9 27  1  0
 11 28  1  0
 12 29  1  0
 13 30  1  0
 14 31  1  0
 17 32  1  0
 17 33  1  0
 18 34  1  0
M  END
>  <candidate_id>  (12) 
CAND_395a83733f

>  <source_generator>  (12) 
selfies

>  <parent_mol_id>  (12) 
JAK2_6bbe5c39de

>  <canonical_smiles>  (12) 
FNC1N=CC=CC=Cc2ccccc2OCNN=N1

>  <inchikey>  (12) 
FIHWPOOQECCKMM-UHFFFAOYSA-N

>  <valid_rdkit>  (12) 
True

>  <unique_flag>  (12) 
True

>  <novel_flag>  (12) 
True

>  <mw>  (12) 
275.287

>  <logp>  (12) 
2.3912

>  <tpsa>  (12) 
70.37

>  <hbd>  (12) 
2

>  <hba>  (12) 
6

>  <rotatable_bonds>  (12) 
1

>  <qed>  (12) 
0.773

>  <sa_score>  (12) 
3.075

>  <murcko_scaffold>  (12) 
C1=CC=NCN=NNCOc2ccccc2C=C1

>  <max_ring_size>  (12) 
14

>  <has_macrocycle_12_20>  (12) 
True

>  <has_constrained_ring_8_11>  (12) 
False

>  <passes_basic_filters>  (12) 
True

>  <generation_notes>  (12) 
selfies_token_mutation

>  <best_score>  (12) 
nan

>  <qed_admet>  (12) 
0.773

>  <sa_score_admet>  (12) 
3.075

>  <mw_admet>  (12) 
275.287

>  <logp_admet>  (12) 
2.3912

>  <tpsa_admet>  (12) 
70.37

>  <hbd_admet>  (12) 
2

>  <hba_admet>  (12) 
6

>  <rotatable_bonds_admet>  (12) 
1

>  <lipinski_violations>  (12) 
0

>  <veber_pass>  (12) 
True

>  <admet_score>  (12) 
0.89785

>  <synthesis_score>  (12) 
0.769444

>  <safety_proxy_score>  (12) 
1.0

>  <main_risk>  (12) 
no_major_descriptor_risk

>  <pose_score>  (12) 
0.5

>  <pose_decision>  (12) 
nan

>  <contacts_within_4A>  (12) 
nan

>  <hard_clashes_lt_1_8A>  (12) 
nan

>  <smiles>  (12) 
FNC1N=CC=CC=Cc2ccccc2OCNN=N1

>  <docking_score>  (12) 
nan

>  <diversity_cluster>  (12) 
scaffold_425ff667

>  <docking_score_scaled>  (12) 
0.0

>  <novelty_score>  (12) 
1.0

>  <final_weighted_score>  (12) 
0.519987

>  <rank>  (12) 
278

>  <decision>  (12) 
await_docking

>  <diverse_rank>  (12) 
236

>  <selection_tier>  (12) 
await_docking

$$$$
CAND_d69f8c8d4a
     RDKit          3D

 32 33  0  0  0  0  0  0  0  0999 V2000
    5.0473   -1.3302   -0.4265 F   0  0  0  0  0  0  0  0  0  0  0  0
    3.8105   -0.8507   -0.6808 C   0  0  0  0  0  0  0  0  0  0  0  0
    3.6754    0.2911   -1.3695 C   0  0  0  0  0  0  0  0  0  0  0  0
    2.4441    0.9941   -1.6523 C   0  0  0  0  0  0  0  0  0  0  0  0
    1.6379    1.4925   -0.7051 C   0  0  0  0  0  0  0  0  0  0  0  0
    0.4170    2.0882   -0.8911 N   0  0  0  0  0  0  0  0  0  0  0  0
   -0.4710    2.4593    0.0730 N   0  0  0  0  0  0  0  0  0  0  0  0
   -0.9779    1.5323    0.8348 C   0  0  0  0  0  0  0  0  0  0  0  0
   -0.6345    0.0453    0.8136 C   0  0  0  0  0  0  0  0  0  0  0  0
   -1.3383   -0.9103    0.1877 C   0  0  0  0  0  0  0  0  0  0  0  0
   -2.5666   -0.7121   -0.3405 C   0  0  0  0  0  0  0  0  0  0  0  0
   -3.5129    0.2401   -0.3457 C   0  0  0  0  0  0  0  0  0  0  0  0
   -3.7458    1.4160    0.2515 C   0  0  0  0  0  0  0  0  0  0  0  0
   -3.0737    2.1084    1.1793 C   0  0  0  0  0  0  0  0  0  0  0  0
   -1.8882    1.7934    1.8047 O   0  0  0  0  0  0  0  0  0  0  0  0
   -0.7568   -2.1802    0.0185 N   0  0  0  0  0  0  0  0  0  0  0  0
    0.6193   -2.5753    0.2354 C   0  0  0  0  0  0  0  0  0  0  0  0
    1.5610   -1.8225   -0.5845 N   0  0  0  0  0  0  0  0  0  0  0  0
    2.7260   -1.6565   -0.0665 C   0  0  0  0  0  0  0  0  0  0  0  0
    4.5724    0.7485   -1.7795 H   0  0  0  0  0  0  0  0  0  0  0  0
    2.1807    1.0925   -2.7018 H   0  0  0  0  0  0  0  0  0  0  0  0
    1.9069    1.4172    0.3449 H   0  0  0  0  0  0  0  0  0  0  0  0
    0.1587    2.2930   -1.8554 H   0  0  0  0  0  0  0  0  0  0  0  0
    0.3242   -0.1801    1.2561 H   0  0  0  0  0  0  0  0  0  0  0  0
   -2.9038   -1.5723   -0.9302 H   0  0  0  0  0  0  0  0  0  0  0  0
   -4.3487   -0.0346   -1.0028 H   0  0  0  0  0  0  0  0  0  0  0  0
   -4.6829    1.8954   -0.0461 H   0  0  0  0  0  0  0  0  0  0  0  0
   -3.4545    3.0336    1.5981 H   0  0  0  0  0  0  0  0  0  0  0  0
   -1.2956   -2.8442   -0.5238 H   0  0  0  0  0  0  0  0  0  0  0  0
    0.8433   -2.4994    1.3073 H   0  0  0  0  0  0  0  0  0  0  0  0
    0.7101   -3.6368   -0.0236 H   0  0  0  0  0  0  0  0  0  0  0  0
    3.0167   -2.1358    0.8857 H   0  0  0  0  0  0  0  0  0  0  0  0
  1  2  1  0
  2  3  2  3
  3  4  1  0
  4  5  2  3
  5  6  1  0
  6  7  1  0
  7  8  2  3
  8  9  1  0
  9 10  2  0
 10 11  1  0
 11 12  2  0
 12 13  1  0
 13 14  2  0
 14 15  1  0
 10 16  1  0
 16 17  1  0
 17 18  1  0
 18 19  2  3
 19  2  1  0
 15  8  1  0
  3 20  1  0
  4 21  1  0
  5 22  1  0
  6 23  1  0
  9 24  1  0
 11 25  1  0
 12 26  1  0
 13 27  1  0
 14 28  1  0
 16 29  1  0
 17 30  1  0
 17 31  1  0
 19 32  1  0
M  END
>  <candidate_id>  (13) 
CAND_d69f8c8d4a

>  <source_generator>  (13) 
selfies

>  <parent_mol_id>  (13) 
JAK2_d4de330de6

>  <canonical_smiles>  (13) 
FC1=CC=CNN=C2C=C(C=CC=CO2)NCN=C1

>  <inchikey>  (13) 
XMLFBUCECRGVAS-UHFFFAOYSA-N

>  <valid_rdkit>  (13) 
True

>  <unique_flag>  (13) 
True

>  <novel_flag>  (13) 
True

>  <mw>  (13) 
260.272

>  <logp>  (13) 
1.8721

>  <tpsa>  (13) 
58.01

>  <hbd>  (13) 
2

>  <hba>  (13) 
5

>  <rotatable_bonds>  (13) 
0

>  <qed>  (13) 
0.6988

>  <sa_score>  (13) 
2.7

>  <murcko_scaffold>  (13) 
C1=CC=NCNC2=CC(=NNC=C1)OC=CC=C2

>  <max_ring_size>  (13) 
13

>  <has_macrocycle_12_20>  (13) 
True

>  <has_constrained_ring_8_11>  (13) 
False

>  <passes_basic_filters>  (13) 
True

>  <generation_notes>  (13) 
selfies_token_mutation

>  <best_score>  (13) 
nan

>  <qed_admet>  (13) 
0.6988

>  <sa_score_admet>  (13) 
2.7

>  <mw_admet>  (13) 
260.272

>  <logp_admet>  (13) 
1.8721

>  <tpsa_admet>  (13) 
58.01

>  <hbd_admet>  (13) 
2

>  <hba_admet>  (13) 
5

>  <rotatable_bonds_admet>  (13) 
0

>  <lipinski_violations>  (13) 
0

>  <veber_pass>  (13) 
True

>  <admet_score>  (13) 
0.86446

>  <synthesis_score>  (13) 
0.811111

>  <safety_proxy_score>  (13) 
1.0

>  <main_risk>  (13) 
no_major_descriptor_risk

>  <pose_score>  (13) 
0.5

>  <pose_decision>  (13) 
nan

>  <contacts_within_4A>  (13) 
nan

>  <hard_clashes_lt_1_8A>  (13) 
nan

>  <smiles>  (13) 
FC1=CC=CNN=C2C=C(C=CC=CO2)NCN=C1

>  <docking_score>  (13) 
nan

>  <diversity_cluster>  (13) 
scaffold_8c17d811

>  <docking_score_scaled>  (13) 
0.0

>  <novelty_score>  (13) 
1.0

>  <final_weighted_score>  (13) 
0.519559

>  <rank>  (13) 
291

>  <decision>  (13) 
await_docking

>  <diverse_rank>  (13) 
247

>  <selection_tier>  (13) 
await_docking

$$$$
CAND_9b7c0adad8
     RDKit          3D

 45 47  0  0  0  0  0  0  0  0999 V2000
    4.3950    0.5076   -0.8029 C   0  0  0  0  0  0  0  0  0  0  0  0
    4.1733   -0.3158    0.4539 C   0  0  0  0  0  0  0  0  0  0  0  0
    2.7550   -0.5946    0.7148 N   0  0  0  0  0  0  0  0  0  0  0  0
    2.0674   -1.6005    0.0454 C   0  0  0  0  0  0  0  0  0  0  0  0
    1.1653   -2.4362    0.5827 C   0  0  0  0  0  0  0  0  0  0  0  0
    0.0769   -3.0270   -0.1802 C   0  0  0  0  0  0  0  0  0  0  0  0
   -1.0092   -2.3020   -0.5583 C   0  0  0  0  0  0  0  0  0  0  0  0
   -2.1110   -2.9874   -1.2493 C   0  0  0  0  0  0  0  0  0  0  0  0
   -3.2387   -2.4743   -1.7784 C   0  0  0  0  0  0  0  0  0  0  0  0
   -3.5608   -1.1484   -1.8500 N   0  0  0  0  0  0  0  0  0  0  0  0
   -3.9382   -0.6199   -0.7317 C   0  0  0  0  0  0  0  0  0  0  0  0
   -3.8968    0.8471   -0.5876 C   0  0  0  0  0  0  0  0  0  0  0  0
   -3.6057    1.3276    0.6296 C   0  0  0  0  0  0  0  0  0  0  0  0
   -3.1305    2.6744    0.8479 C   0  0  0  0  0  0  0  0  0  0  0  0
   -2.0331    3.2216    0.2981 C   0  0  0  0  0  0  0  0  0  0  0  0
   -1.6497    4.8772    0.6080 Cl  0  0  0  0  0  0  0  0  0  0  0  0
   -1.1348    2.5452   -0.5967 C   0  0  0  0  0  0  0  0  0  0  0  0
   -0.5932    2.4992   -1.7226 N   0  0  0  0  0  0  0  0  0  0  0  0
   -0.2178    1.4651   -0.6046 C   0  0  0  0  0  0  0  0  0  0  0  0
   -0.5989    0.1065   -0.9987 C   0  0  0  0  0  0  0  0  0  0  0  0
   -0.9913   -0.8827   -0.1779 C   0  0  0  0  0  0  0  0  0  0  0  0
    1.1918    1.6989   -0.2781 N   0  0  0  0  0  0  0  0  0  0  0  0
    1.5946    1.6401    1.1267 C   0  0  0  0  0  0  0  0  0  0  0  0
    2.0533    0.2704    1.6962 C   0  0  0  0  0  0  0  0  0  0  0  0
    3.9993    1.5206   -0.6906 H   0  0  0  0  0  0  0  0  0  0  0  0
    3.9218    0.0503   -1.6771 H   0  0  0  0  0  0  0  0  0  0  0  0
    5.4669    0.5964   -1.0074 H   0  0  0  0  0  0  0  0  0  0  0  0
    4.6228    0.2020    1.3093 H   0  0  0  0  0  0  0  0  0  0  0  0
    4.7102   -1.2677    0.3579 H   0  0  0  0  0  0  0  0  0  0  0  0
    2.1994   -1.5445   -1.0341 H   0  0  0  0  0  0  0  0  0  0  0  0
    1.0614   -2.5103    1.6617 H   0  0  0  0  0  0  0  0  0  0  0  0
    0.1530   -4.0939   -0.3691 H   0  0  0  0  0  0  0  0  0  0  0  0
   -1.9976   -4.0676   -1.3367 H   0  0  0  0  0  0  0  0  0  0  0  0
   -3.9369   -3.1449   -2.2762 H   0  0  0  0  0  0  0  0  0  0  0  0
   -4.1218   -1.2088    0.1868 H   0  0  0  0  0  0  0  0  0  0  0  0
   -3.8345    1.4292   -1.5011 H   0  0  0  0  0  0  0  0  0  0  0  0
   -3.6304    0.6913    1.5120 H   0  0  0  0  0  0  0  0  0  0  0  0
   -3.7340    3.2655    1.5349 H   0  0  0  0  0  0  0  0  0  0  0  0
   -0.4310   -0.1350   -2.0477 H   0  0  0  0  0  0  0  0  0  0  0  0
   -1.1164   -0.6843    0.8835 H   0  0  0  0  0  0  0  0  0  0  0  0
    1.7590    1.0246   -0.7935 H   0  0  0  0  0  0  0  0  0  0  0  0
    0.8218    2.0687    1.7762 H   0  0  0  0  0  0  0  0  0  0  0  0
    2.4541    2.3163    1.2162 H   0  0  0  0  0  0  0  0  0  0  0  0
    2.7027    0.4406    2.5638 H   0  0  0  0  0  0  0  0  0  0  0  0
    1.1673   -0.2406    2.0898 H   0  0  0  0  0  0  0  0  0  0  0  0
  1  2  1  0
  2  3  1  0
  3  4  1  0
  4  5  2  3
  5  6  1  0
  6  7  2  3
  7  8  1  0
  8  9  2  3
  9 10  1  0
 10 11  2  3
 11 12  1  0
 12 13  2  3
 13 14  1  0
 14 15  2  3
 15 16  1  0
 15 17  1  0
 17 18  2  0
 18 19  1  0
 19 20  1  0
 20 21  2  3
 19 22  1  0
 22 23  1  0
 23 24  1  0
 24  3  1  0
 21  7  1  0
 19 17  1  0
  1 25  1  0
  1 26  1  0
  1 27  1  0
  2 28  1  0
  2 29  1  0
  4 30  1  0
  5 31  1  0
  6 32  1  0
  8 33  1  0
  9 34  1  0
 11 35  1  0
 12 36  1  0
 13 37  1  0
 14 38  1  0
 20 39  1  0
 21 40  1  0
 22 41  1  0
 23 42  1  0
 23 43  1  0
 24 44  1  0
 24 45  1  0
M  END
>  <candidate_id>  (14) 
CAND_9b7c0adad8

>  <source_generator>  (14) 
selfies

>  <parent_mol_id>  (14) 
JAK2_4424830aa8

>  <canonical_smiles>  (14) 
CCN1C=CC=C2C=CN=CC=CC=C(Cl)C3=NC3(C=C2)NCC1

>  <inchikey>  (14) 
YCPSESZDVADOCL-UHFFFAOYSA-N

>  <valid_rdkit>  (14) 
True

>  <unique_flag>  (14) 
True

>  <novel_flag>  (14) 
True

>  <mw>  (14) 
340.858

>  <logp>  (14) 
3.3357

>  <tpsa>  (14) 
39.99

>  <hbd>  (14) 
1

>  <hba>  (14) 
4

>  <rotatable_bonds>  (14) 
1

>  <qed>  (14) 
0.7949

>  <sa_score>  (14) 
3.325

>  <murcko_scaffold>  (14) 
C1=CC=NC=CC2=CC=CNCCNC3(C=C2)N=C3C=C1

>  <max_ring_size>  (14) 
13

>  <has_macrocycle_12_20>  (14) 
True

>  <has_constrained_ring_8_11>  (14) 
False

>  <passes_basic_filters>  (14) 
True

>  <generation_notes>  (14) 
selfies_token_mutation

>  <best_score>  (14) 
nan

>  <qed_admet>  (14) 
0.7949

>  <sa_score_admet>  (14) 
3.325

>  <mw_admet>  (14) 
340.858

>  <logp_admet>  (14) 
3.3357

>  <tpsa_admet>  (14) 
39.99

>  <hbd_admet>  (14) 
1

>  <hba_admet>  (14) 
4

>  <rotatable_bonds_admet>  (14) 
1

>  <lipinski_violations>  (14) 
0

>  <veber_pass>  (14) 
True

>  <admet_score>  (14) 
0.907705

>  <synthesis_score>  (14) 
0.741667

>  <safety_proxy_score>  (14) 
1.0

>  <main_risk>  (14) 
no_major_descriptor_risk

>  <pose_score>  (14) 
0.5

>  <pose_decision>  (14) 
nan

>  <contacts_within_4A>  (14) 
nan

>  <hard_clashes_lt_1_8A>  (14) 
nan

>  <smiles>  (14) 
CCN1C=CC=C2C=CN=CC=CC=C(Cl)C3=NC3(C=C2)NCC1

>  <docking_score>  (14) 
nan

>  <diversity_cluster>  (14) 
scaffold_acfe98cf

>  <docking_score_scaled>  (14) 
0.0

>  <novelty_score>  (14) 
1.0

>  <final_weighted_score>  (14) 
0.517791

>  <rank>  (14) 
331

>  <decision>  (14) 
await_docking

>  <diverse_rank>  (14) 
279

>  <selection_tier>  (14) 
await_docking

$$$$
CAND_67afdb076f
     RDKit          3D

 44 45  0  0  0  0  0  0  0  0999 V2000
   -2.6970    3.7130   -1.2039 C   0  0  0  0  0  0  0  0  0  0  0  0
   -3.3424    2.4961   -0.8081 N   0  0  0  0  0  0  0  0  0  0  0  0
   -3.0235    1.2169   -1.1373 C   0  0  0  0  0  0  0  0  0  0  0  0
   -2.1577    0.6835   -1.9240 N   0  0  0  0  0  0  0  0  0  0  0  0
   -1.2566    1.4137   -2.6339 C   0  0  0  0  0  0  0  0  0  0  0  0
    0.0204    1.1570   -2.6503 N   0  0  0  0  0  0  0  0  0  0  0  0
    0.4642    0.1187   -1.8596 C   0  0  0  0  0  0  0  0  0  0  0  0
    1.0517    0.4412   -0.6574 N   0  0  0  0  0  0  0  0  0  0  0  0
    2.2970   -0.0875   -0.1186 C   0  0  1  0  0  0  0  0  0  0  0  0
    3.3766    0.9958   -0.1822 C   0  0  0  0  0  0  0  0  0  0  0  0
    2.1060   -0.5627    1.3119 C   0  0  0  0  0  0  0  0  0  0  0  0
    1.3315    0.1539    2.2395 C   0  0  0  0  0  0  0  0  0  0  0  0
    1.1726   -0.3096    3.5469 C   0  0  0  0  0  0  0  0  0  0  0  0
    1.7949   -1.4883    3.9506 C   0  0  0  0  0  0  0  0  0  0  0  0
    2.5786   -2.2040    3.0490 C   0  0  0  0  0  0  0  0  0  0  0  0
    2.7356   -1.7438    1.7401 C   0  0  0  0  0  0  0  0  0  0  0  0
    0.2211   -1.1403   -2.2833 C   0  0  0  0  0  0  0  0  0  0  0  0
    0.2027   -2.3999   -1.4626 C   0  0  0  0  0  0  0  0  0  0  0  0
   -1.1857   -2.5047   -0.9902 N   0  0  0  0  0  0  0  0  0  0  0  0
   -1.3298   -2.0115    0.1961 C   0  0  0  0  0  0  0  0  0  0  0  0
   -2.6744   -1.4378    0.5891 C   0  0  0  0  0  0  0  0  0  0  0  0
   -2.9379   -1.2476    1.7646 O   0  0  0  0  0  0  0  0  0  0  0  0
   -3.3387   -0.9873   -0.5260 N   0  0  0  0  0  0  0  0  0  0  0  0
   -3.8121    0.3502   -0.3983 O   0  0  0  0  0  0  0  0  0  0  0  0
   -1.6252    3.6812   -0.9867 H   0  0  0  0  0  0  0  0  0  0  0  0
   -3.1229    4.5553   -0.6497 H   0  0  0  0  0  0  0  0  0  0  0  0
   -2.8498    3.9083   -2.2688 H   0  0  0  0  0  0  0  0  0  0  0  0
   -4.0810    2.5796   -0.1169 H   0  0  0  0  0  0  0  0  0  0  0  0
   -1.6221    2.2402   -3.2643 H   0  0  0  0  0  0  0  0  0  0  0  0
    0.8821    1.4153   -0.4340 H   0  0  0  0  0  0  0  0  0  0  0  0
    2.6408   -0.9275   -0.7345 H   0  0  0  0  0  0  0  0  0  0  0  0
    3.1025    1.8781    0.4079 H   0  0  0  0  0  0  0  0  0  0  0  0
    3.5323    1.3268   -1.2151 H   0  0  0  0  0  0  0  0  0  0  0  0
    4.3325    0.6223    0.2013 H   0  0  0  0  0  0  0  0  0  0  0  0
    0.8318    1.0738    1.9462 H   0  0  0  0  0  0  0  0  0  0  0  0
    0.5573    0.2478    4.2488 H   0  0  0  0  0  0  0  0  0  0  0  0
    1.6678   -1.8487    4.9681 H   0  0  0  0  0  0  0  0  0  0  0  0
    3.0667   -3.1225    3.3647 H   0  0  0  0  0  0  0  0  0  0  0  0
    3.3518   -2.3188    1.0520 H   0  0  0  0  0  0  0  0  0  0  0  0
   -0.2299   -1.2596   -3.2666 H   0  0  0  0  0  0  0  0  0  0  0  0
    0.4308   -3.2580   -2.1037 H   0  0  0  0  0  0  0  0  0  0  0  0
    0.9357   -2.4138   -0.6539 H   0  0  0  0  0  0  0  0  0  0  0  0
   -0.5248   -1.8247    0.9231 H   0  0  0  0  0  0  0  0  0  0  0  0
   -2.8734   -1.1701   -1.4196 H   0  0  0  0  0  0  0  0  0  0  0  0
  1  2  1  0
  2  3  1  0
  3  4  2  3
  4  5  1  0
  5  6  2  3
  6  7  1  0
  7  8  1  0
  8  9  1  0
  9 10  1  0
  9 11  1  0
 11 12  2  0
 12 13  1  0
 13 14  2  0
 14 15  1  0
 15 16  2  0
  7 17  2  3
 17 18  1  0
 18 19  1  0
 19 20  2  3
 20 21  1  0
 21 22  2  0
 21 23  1  0
 23 24  1  0
 24  3  1  0
 16 11  1  0
  1 25  1  0
  1 26  1  0
  1 27  1  0
  2 28  1  0
  5 29  1  0
  8 30  1  0
  9 31  1  6
 10 32  1  0
 10 33  1  0
 10 34  1  0
 12 35  1  0
 13 36  1  0
 14 37  1  0
 15 38  1  0
 16 39  1  0
 17 40  1  0
 18 41  1  0
 18 42  1  0
 20 43  1  0
 23 44  1  0
M  END
>  <candidate_id>  (15) 
CAND_67afdb076f

>  <source_generator>  (15) 
selfies

>  <parent_mol_id>  (15) 
JAK2_3fc0ebe287

>  <canonical_smiles>  (15) 
CNC1=NC=NC(N[C@@H](C)c2ccccc2)=CCN=CC(=O)NO1

>  <inchikey>  (15) 
QXRKWJNQBSRQSP-LBPRGKRZSA-N

>  <valid_rdkit>  (15) 
True

>  <unique_flag>  (15) 
True

>  <novel_flag>  (15) 
True

>  <mw>  (15) 
328.376

>  <logp>  (15) 
0.9145

>  <tpsa>  (15) 
99.47

>  <hbd>  (15) 
3

>  <hba>  (15) 
7

>  <rotatable_bonds>  (15) 
3

>  <qed>  (15) 
0.7679

>  <sa_score>  (15) 
3.325

>  <murcko_scaffold>  (15) 
O=C1C=NCC=C(NCc2ccccc2)N=CN=CON1

>  <max_ring_size>  (15) 
12

>  <has_macrocycle_12_20>  (15) 
True

>  <has_constrained_ring_8_11>  (15) 
False

>  <passes_basic_filters>  (15) 
True

>  <generation_notes>  (15) 
selfies_token_mutation

>  <best_score>  (15) 
nan

>  <qed_admet>  (15) 
0.7679

>  <sa_score_admet>  (15) 
3.325

>  <mw_admet>  (15) 
328.376

>  <logp_admet>  (15) 
0.9145

>  <tpsa_admet>  (15) 
99.47

>  <hbd_admet>  (15) 
3

>  <hba_admet>  (15) 
7

>  <rotatable_bonds_admet>  (15) 
3

>  <lipinski_violations>  (15) 
0

>  <veber_pass>  (15) 
True

>  <admet_score>  (15) 
0.895555

>  <synthesis_score>  (15) 
0.741667

>  <safety_proxy_score>  (15) 
1.0

>  <main_risk>  (15) 
no_major_descriptor_risk

>  <pose_score>  (15) 
0.5

>  <pose_decision>  (15) 
nan

>  <contacts_within_4A>  (15) 
nan

>  <hard_clashes_lt_1_8A>  (15) 
nan

>  <smiles>  (15) 
CNC1=NC=NC(N[C@@H](C)c2ccccc2)=CCN=CC(=O)NO1

>  <docking_score>  (15) 
nan

>  <diversity_cluster>  (15) 
scaffold_cd9daf79

>  <docking_score_scaled>  (15) 
0.0

>  <novelty_score>  (15) 
1.0

>  <final_weighted_score>  (15) 
0.515361

>  <rank>  (15) 
404

>  <decision>  (15) 
await_docking

>  <diverse_rank>  (15) 
326

>  <selection_tier>  (15) 
await_docking

$$$$
CAND_801ac66786
     RDKit          3D

 50 52  0  0  0  0  0  0  0  0999 V2000
    4.8482    0.3499    1.1242 C   0  0  0  0  0  0  0  0  0  0  0  0
    4.2870   -0.2232   -0.1757 C   0  0  1  0  0  0  0  0  0  0  0  0
    3.6584   -1.6500   -0.0669 C   0  0  0  0  0  0  0  0  0  0  0  0
    3.4330   -2.2153    1.3158 C   0  0  0  0  0  0  0  0  0  0  0  0
    2.3129   -2.4584    2.0179 C   0  0  0  0  0  0  0  0  0  0  0  0
    0.9176   -2.1992    1.7373 C   0  0  0  0  0  0  0  0  0  0  0  0
    0.2771   -2.3670    0.5721 C   0  0  0  0  0  0  0  0  0  0  0  0
   -1.2112   -2.1436    0.3622 C   0  0  0  0  0  0  0  0  0  0  0  0
   -1.6690   -0.6759    0.1040 C   0  0  0  0  0  0  0  0  0  0  0  0
   -2.0034   -0.0321    1.4561 C   0  0  0  0  0  0  0  0  0  0  0  0
   -3.2662    0.2283    1.6594 N   0  0  0  0  0  0  0  0  0  0  0  0
   -3.9135   -0.1364    0.4641 C   0  0  0  0  0  0  0  0  0  0  0  0
   -5.2552   -0.0108    0.1862 C   0  0  0  0  0  0  0  0  0  0  0  0
   -5.6554   -0.4000   -1.0817 C   0  0  0  0  0  0  0  0  0  0  0  0
   -4.8178   -0.8798   -2.0423 N   0  0  0  0  0  0  0  0  0  0  0  0
   -3.5064   -0.9894   -1.7284 C   0  0  0  0  0  0  0  0  0  0  0  0
   -3.0325   -0.6329   -0.4942 C   0  0  0  0  0  0  0  0  0  0  0  0
   -0.6140    0.0203   -0.6085 N   0  0  0  0  0  0  0  0  0  0  0  0
   -0.3147    1.2708   -0.5686 C   0  0  0  0  0  0  0  0  0  0  0  0
   -1.0736    2.3139   -0.0809 N   0  0  0  0  0  0  0  0  0  0  0  0
   -2.3340    2.6753   -0.7145 C   0  0  0  0  0  0  0  0  0  0  0  0
   -0.4762    3.3563    0.7415 C   0  0  0  0  0  0  0  0  0  0  0  0
    1.0646    1.5477   -1.0804 C   0  0  0  0  0  0  0  0  0  0  0  0
    2.0327    0.8574   -0.4678 C   0  0  0  0  0  0  0  0  0  0  0  0
    3.3618    0.7473   -0.7714 N   0  0  0  0  0  0  0  0  0  0  0  0
    5.6134   -0.3088    1.5472 H   0  0  0  0  0  0  0  0  0  0  0  0
    5.3144    1.3254    0.9441 H   0  0  0  0  0  0  0  0  0  0  0  0
    4.0638    0.5017    1.8736 H   0  0  0  0  0  0  0  0  0  0  0  0
    5.1266   -0.3038   -0.8787 H   0  0  0  0  0  0  0  0  0  0  0  0
    4.3637   -2.3425   -0.5495 H   0  0  0  0  0  0  0  0  0  0  0  0
    2.7581   -1.7273   -0.6822 H   0  0  0  0  0  0  0  0  0  0  0  0
    4.3636   -2.4985    1.8110 H   0  0  0  0  0  0  0  0  0  0  0  0
    2.4554   -2.8796    3.0160 H   0  0  0  0  0  0  0  0  0  0  0  0
    0.3406   -1.9009    2.6119 H   0  0  0  0  0  0  0  0  0  0  0  0
    0.8225   -2.6937   -0.3092 H   0  0  0  0  0  0  0  0  0  0  0  0
   -1.4891   -2.7681   -0.4989 H   0  0  0  0  0  0  0  0  0  0  0  0
   -1.7596   -2.5734    1.2123 H   0  0  0  0  0  0  0  0  0  0  0  0
   -1.2154    0.1583    2.1985 H   0  0  0  0  0  0  0  0  0  0  0  0
   -5.9525    0.3748    0.9167 H   0  0  0  0  0  0  0  0  0  0  0  0
   -6.6984   -0.3330   -1.3794 H   0  0  0  0  0  0  0  0  0  0  0  0
   -2.8562   -1.3714   -2.5078 H   0  0  0  0  0  0  0  0  0  0  0  0
   -2.2382    3.6433   -1.2189 H   0  0  0  0  0  0  0  0  0  0  0  0
   -3.1283    2.7587    0.0331 H   0  0  0  0  0  0  0  0  0  0  0  0
   -2.6359    1.9510   -1.4755 H   0  0  0  0  0  0  0  0  0  0  0  0
   -1.2415    3.8675    1.3353 H   0  0  0  0  0  0  0  0  0  0  0  0
    0.2498    2.9313    1.4429 H   0  0  0  0  0  0  0  0  0  0  0  0
    0.0298    4.0995    0.1166 H   0  0  0  0  0  0  0  0  0  0  0  0
    1.1996    2.2129   -1.9171 H   0  0  0  0  0  0  0  0  0  0  0  0
    1.7603    0.2297    0.3798 H   0  0  0  0  0  0  0  0  0  0  0  0
    3.7032    1.2936   -1.5564 H   0  0  0  0  0  0  0  0  0  0  0  0
  1  2  1  0
  2  3  1  0
  3  4  1  0
  4  5  2  3
  5  6  1  0
  6  7  2  3
  7  8  1  0
  8  9  1  0
  9 10  1  0
 10 11  2  0
 11 12  1  0
 12 13  2  0
 13 14  1  0
 14 15  2  0
 15 16  1  0
 16 17  2  0
  9 18  1  0
 18 19  2  3
 19 20  1  0
 20 21  1  0
 20 22  1  0
 19 23  1  0
 23 24  2  3
 24 25  1  0
 25  2  1  0
 17  9  1  0
 17 12  1  0
  1 26  1  0
  1 27  1  0
  1 28  1  0
  2 29  1  6
  3 30  1  0
  3 31  1  0
  4 32  1  0
  5 33  1  0
  6 34  1  0
  7 35  1  0
  8 36  1  0
  8 37  1  0
 10 38  1  0
 13 39  1  0
 14 40  1  0
 16 41  1  0
 21 42  1  0
 21 43  1  0
 21 44  1  0
 22 45  1  0
 22 46  1  0
 22 47  1  0
 23 48  1  0
 24 49  1  0
 25 50  1  0
M  END
>  <candidate_id>  (16) 
CAND_801ac66786

>  <source_generator>  (16) 
selfies

>  <parent_mol_id>  (16) 
JAK2_81b37eaffc

>  <canonical_smiles>  (16) 
C[C@H]1CC=CC=CCC2(C=Nc3ccncc32)N=C(N(C)C)C=CN1

>  <inchikey>  (16) 
VILSIRYPEUNBCG-DJZRFWRSSA-N

>  <valid_rdkit>  (16) 
True

>  <unique_flag>  (16) 
True

>  <novel_flag>  (16) 
True

>  <mw>  (16) 
335.455

>  <logp>  (16) 
3.3509

>  <tpsa>  (16) 
52.88

>  <hbd>  (16) 
1

>  <hba>  (16) 
5

>  <rotatable_bonds>  (16) 
0

>  <qed>  (16) 
0.7909

>  <sa_score>  (16) 
3.45

>  <murcko_scaffold>  (16) 
C1=CCCNC=CC=NC2(C=Nc3ccncc32)CC=C1

>  <max_ring_size>  (16) 
13

>  <has_macrocycle_12_20>  (16) 
True

>  <has_constrained_ring_8_11>  (16) 
False

>  <passes_basic_filters>  (16) 
True

>  <generation_notes>  (16) 
selfies_token_mutation

>  <best_score>  (16) 
nan

>  <qed_admet>  (16) 
0.7909

>  <sa_score_admet>  (16) 
3.45

>  <mw_admet>  (16) 
335.455

>  <logp_admet>  (16) 
3.3509

>  <tpsa_admet>  (16) 
52.88

>  <hbd_admet>  (16) 
1

>  <hba_admet>  (16) 
5

>  <rotatable_bonds_admet>  (16) 
0

>  <lipinski_violations>  (16) 
0

>  <veber_pass>  (16) 
True

>  <admet_score>  (16) 
0.905905

>  <synthesis_score>  (16) 
0.727778

>  <safety_proxy_score>  (16) 
1.0

>  <main_risk>  (16) 
no_major_descriptor_risk

>  <pose_score>  (16) 
0.5

>  <pose_decision>  (16) 
nan

>  <contacts_within_4A>  (16) 
nan

>  <hard_clashes_lt_1_8A>  (16) 
nan

>  <smiles>  (16) 
C[C@H]1CC=CC=CCC2(C=Nc3ccncc32)N=C(N(C)C)C=CN1

>  <docking_score>  (16) 
nan

>  <diversity_cluster>  (16) 
scaffold_bcd1378d

>  <docking_score_scaled>  (16) 
0.0

>  <novelty_score>  (16) 
1.0

>  <final_weighted_score>  (16) 
0.515348

>  <rank>  (16) 
406

>  <decision>  (16) 
await_docking

>  <diverse_rank>  (16) 
328

>  <selection_tier>  (16) 
await_docking

$$$$
CAND_962ca21bbb
     RDKit          3D

 41 43  0  0  0  0  0  0  0  0999 V2000
    7.5573    1.6682    0.4568 Cl  0  0  0  0  0  0  0  0  0  0  0  0
    7.2270    0.0398    0.0398 C   0  0  0  0  0  0  0  0  0  0  0  0
    6.0253   -0.4740   -0.2441 C   0  0  0  0  0  0  0  0  0  0  0  0
    4.7677    0.2409   -0.2507 C   0  0  0  0  0  0  0  0  0  0  0  0
    3.6004   -0.3399   -0.5570 C   0  0  0  0  0  0  0  0  0  0  0  0
    2.3755    0.2720   -0.5739 N   0  0  0  0  0  0  0  0  0  0  0  0
    1.0947   -0.2957   -0.9341 C   0  0  0  0  0  0  0  0  0  0  0  0
    0.0619    0.6564   -1.3679 N   0  0  0  0  0  0  0  0  0  0  0  0
   -0.3406    1.6998   -0.4326 N   0  0  0  0  0  0  0  0  0  0  0  0
   -0.1965    1.5971    1.0435 C   0  0  0  0  0  0  0  0  0  0  0  0
   -1.3595    0.9630    1.6115 O   0  0  0  0  0  0  0  0  0  0  0  0
   -2.3200    1.2758    0.6784 C   0  0  0  0  0  0  0  0  0  0  0  0
   -3.6310    0.8220    0.6847 C   0  0  0  0  0  0  0  0  0  0  0  0
   -4.4741    1.2490   -0.3477 C   0  0  0  0  0  0  0  0  0  0  0  0
   -3.9480    1.9912   -1.4229 C   0  0  0  0  0  0  0  0  0  0  0  0
   -2.5709    2.2383   -1.5122 C   0  0  0  0  0  0  0  0  0  0  0  0
   -1.7678    1.8542   -0.4524 C   0  0  0  0  0  0  0  0  0  0  0  0
   -3.8622   -0.4033    1.4697 C   0  0  0  0  0  0  0  0  0  0  0  0
   -3.7267   -1.5310    0.7434 C   0  0  0  0  0  0  0  0  0  0  0  0
   -2.9513   -2.6539    1.2177 C   0  0  0  0  0  0  0  0  0  0  0  0
   -1.7176   -2.9225    0.7403 C   0  0  0  0  0  0  0  0  0  0  0  0
   -0.9570   -2.1586   -0.3293 C   0  0  0  0  0  0  0  0  0  0  0  0
    0.5755   -1.4832    0.3789 S   0  0  0  0  0  0  0  0  0  0  0  0
    8.1319   -0.5556    0.0289 H   0  0  0  0  0  0  0  0  0  0  0  0
    5.9798   -1.5331   -0.4917 H   0  0  0  0  0  0  0  0  0  0  0  0
    4.7805    1.2957    0.0099 H   0  0  0  0  0  0  0  0  0  0  0  0
    3.5582   -1.3967   -0.8181 H   0  0  0  0  0  0  0  0  0  0  0  0
    2.3388    1.2540   -0.3319 H   0  0  0  0  0  0  0  0  0  0  0  0
    1.2678   -0.9344   -1.8084 H   0  0  0  0  0  0  0  0  0  0  0  0
    0.4222    1.1128   -2.2057 H   0  0  0  0  0  0  0  0  0  0  0  0
   -0.1272    2.6109    1.4666 H   0  0  0  0  0  0  0  0  0  0  0  0
    0.7113    1.0862    1.3707 H   0  0  0  0  0  0  0  0  0  0  0  0
   -5.5079    0.9138   -0.3848 H   0  0  0  0  0  0  0  0  0  0  0  0
   -4.5998    2.2783   -2.2450 H   0  0  0  0  0  0  0  0  0  0  0  0
   -2.1404    2.6782   -2.4044 H   0  0  0  0  0  0  0  0  0  0  0  0
   -3.6123   -0.3645    2.5263 H   0  0  0  0  0  0  0  0  0  0  0  0
   -3.8340   -1.4957   -0.3416 H   0  0  0  0  0  0  0  0  0  0  0  0
   -3.3854   -3.2667    2.0030 H   0  0  0  0  0  0  0  0  0  0  0  0
   -1.1937   -3.7803    1.1592 H   0  0  0  0  0  0  0  0  0  0  0  0
   -0.6938   -2.8501   -1.1361 H   0  0  0  0  0  0  0  0  0  0  0  0
   -1.5585   -1.3586   -0.7618 H   0  0  0  0  0  0  0  0  0  0  0  0
  1  2  1  0
  2  3  2  3
  3  4  1  0
  4  5  2  3
  5  6  1  0
  6  7  1  0
  7  8  1  0
  8  9  1  0
  9 10  1  0
 10 11  1  0
 11 12  1  0
 12 13  2  0
 13 14  1  0
 14 15  2  0
 15 16  1  0
 16 17  2  0
 13 18  1  0
 18 19  2  3
 19 20  1  0
 20 21  2  3
 21 22  1  0
 22 23  1  0
 23  7  1  0
 17  9  1  0
 17 12  1  0
  2 24  1  0
  3 25  1  0
  4 26  1  0
  5 27  1  0
  6 28  1  0
  7 29  1  0
  8 30  1  0
 10 31  1  0
 10 32  1  0
 14 33  1  0
 15 34  1  0
 16 35  1  0
 18 36  1  0
 19 37  1  0
 20 38  1  0
 21 39  1  0
 22 40  1  0
 22 41  1  0
M  END
>  <candidate_id>  (17) 
CAND_962ca21bbb

>  <source_generator>  (17) 
selfies

>  <parent_mol_id>  (17) 
JAK2_6d4bc95598

>  <canonical_smiles>  (17) 
ClC=CC=CNC1NN2COc3c(cccc32)C=CC=CCS1

>  <inchikey>  (17) 
OIFPEPKKYFXDCZ-UHFFFAOYSA-N

>  <valid_rdkit>  (17) 
True

>  <unique_flag>  (17) 
True

>  <novel_flag>  (17) 
True

>  <mw>  (17) 
347.871

>  <logp>  (17) 
3.8031

>  <tpsa>  (17) 
36.53

>  <hbd>  (17) 
2

>  <hba>  (17) 
5

>  <rotatable_bonds>  (17) 
3

>  <qed>  (17) 
0.8132

>  <sa_score>  (17) 
3.575

>  <murcko_scaffold>  (17) 
C1=CCSCNN2COc3c(cccc32)C=C1

>  <max_ring_size>  (17) 
12

>  <has_macrocycle_12_20>  (17) 
True

>  <has_constrained_ring_8_11>  (17) 
False

>  <passes_basic_filters>  (17) 
True

>  <generation_notes>  (17) 
selfies_token_mutation

>  <best_score>  (17) 
nan

>  <qed_admet>  (17) 
0.8132

>  <sa_score_admet>  (17) 
3.575

>  <mw_admet>  (17) 
347.871

>  <logp_admet>  (17) 
3.8031

>  <tpsa_admet>  (17) 
36.53

>  <hbd_admet>  (17) 
2

>  <hba_admet>  (17) 
5

>  <rotatable_bonds_admet>  (17) 
3

>  <lipinski_violations>  (17) 
0

>  <veber_pass>  (17) 
True

>  <admet_score>  (17) 
0.91594

>  <synthesis_score>  (17) 
0.713889

>  <safety_proxy_score>  (17) 
1.0

>  <main_risk>  (17) 
no_major_descriptor_risk

>  <pose_score>  (17) 
0.5

>  <pose_decision>  (17) 
nan

>  <contacts_within_4A>  (17) 
nan

>  <hard_clashes_lt_1_8A>  (17) 
nan

>  <smiles>  (17) 
ClC=CC=CNC1NN2COc3c(cccc32)C=CC=CCS1

>  <docking_score>  (17) 
nan

>  <diversity_cluster>  (17) 
scaffold_fe61bf31

>  <docking_score_scaled>  (17) 
0.0

>  <novelty_score>  (17) 
1.0

>  <final_weighted_score>  (17) 
0.515271

>  <rank>  (17) 
408

>  <decision>  (17) 
await_docking

>  <diverse_rank>  (17) 
330

>  <selection_tier>  (17) 
await_docking

$$$$
CAND_68b80f53f9
     RDKit          3D

 42 43  0  0  0  0  0  0  0  0999 V2000
   -3.7095   -1.2914   -1.6911 C   0  0  0  0  0  0  0  0  0  0  0  0
   -2.4965   -0.3666   -1.8453 C   0  0  1  0  0  0  0  0  0  0  0  0
   -2.6078    1.0265   -1.2737 C   0  0  0  0  0  0  0  0  0  0  0  0
   -3.4504    1.4577   -0.3270 C   0  0  0  0  0  0  0  0  0  0  0  0
   -4.3920    0.6333    0.1794 F   0  0  0  0  0  0  0  0  0  0  0  0
   -3.4931    2.8126    0.2978 C   0  0  0  0  0  0  0  0  0  0  0  0
   -2.6102    3.7403    0.4826 N   0  0  0  0  0  0  0  0  0  0  0  0
   -1.3451    3.6131    0.0058 C   0  0  0  0  0  0  0  0  0  0  0  0
   -1.0107    4.3374   -1.0014 N   0  0  0  0  0  0  0  0  0  0  0  0
   -0.4645    2.6035    0.6313 C   0  0  0  0  0  0  0  0  0  0  0  0
   -0.6307    2.1134    1.8689 C   0  0  0  0  0  0  0  0  0  0  0  0
    0.0876    0.9436    2.3247 C   0  0  0  0  0  0  0  0  0  0  0  0
    0.1451   -0.1105    1.5602 C   0  0  0  0  0  0  0  0  0  0  0  0
    0.0787   -1.0793    0.6871 C   0  0  0  0  0  0  0  0  0  0  0  0
    1.2177   -1.6885    0.1841 N   0  0  0  0  0  0  0  0  0  0  0  0
    2.5128   -1.5593    0.5326 C   0  0  0  0  0  0  0  0  0  0  0  0
    3.5475   -2.2365   -0.0698 C   0  0  0  0  0  0  0  0  0  0  0  0
    4.6681   -1.8151    0.5867 N   0  0  0  0  0  0  0  0  0  0  0  0
    6.0226   -2.2326    0.3351 C   0  0  0  0  0  0  0  0  0  0  0  0
    4.2803   -0.9180    1.5382 C   0  0  0  0  0  0  0  0  0  0  0  0
    2.9782   -0.7446    1.5257 N   0  0  0  0  0  0  0  0  0  0  0  0
   -1.2448   -1.4198    0.0132 C   0  0  0  0  0  0  0  0  0  0  0  0
   -1.2467   -1.0115   -1.4035 N   0  0  0  0  0  0  0  0  0  0  0  0
   -3.9153   -1.5592   -0.6500 H   0  0  0  0  0  0  0  0  0  0  0  0
   -4.6096   -0.8181   -2.0992 H   0  0  0  0  0  0  0  0  0  0  0  0
   -3.5519   -2.2244   -2.2445 H   0  0  0  0  0  0  0  0  0  0  0  0
   -2.3866   -0.2220   -2.9289 H   0  0  0  0  0  0  0  0  0  0  0  0
   -1.9011    1.7314   -1.7023 H   0  0  0  0  0  0  0  0  0  0  0  0
   -4.4836    3.0292    0.7366 H   0  0  0  0  0  0  0  0  0  0  0  0
   -0.0370    4.1598   -1.2569 H   0  0  0  0  0  0  0  0  0  0  0  0
    0.2931    2.1921   -0.0288 H   0  0  0  0  0  0  0  0  0  0  0  0
   -1.3571    2.5408    2.5549 H   0  0  0  0  0  0  0  0  0  0  0  0
    0.4360    0.8981    3.3502 H   0  0  0  0  0  0  0  0  0  0  0  0
    0.9934   -2.3257   -0.5755 H   0  0  0  0  0  0  0  0  0  0  0  0
    3.5760   -2.9549   -0.8757 H   0  0  0  0  0  0  0  0  0  0  0  0
    6.0359   -2.9623   -0.4785 H   0  0  0  0  0  0  0  0  0  0  0  0
    6.6096   -1.3540    0.0560 H   0  0  0  0  0  0  0  0  0  0  0  0
    6.4207   -2.6853    1.2468 H   0  0  0  0  0  0  0  0  0  0  0  0
    4.9745   -0.4258    2.2065 H   0  0  0  0  0  0  0  0  0  0  0  0
   -2.0586   -0.9599    0.5862 H   0  0  0  0  0  0  0  0  0  0  0  0
   -1.4027   -2.5037    0.0634 H   0  0  0  0  0  0  0  0  0  0  0  0
   -0.4725   -0.3637   -1.5537 H   0  0  0  0  0  0  0  0  0  0  0  0
  1  2  1  0
  2  3  1  0
  3  4  2  3
  4  5  1  0
  4  6  1  0
  6  7  2  3
  7  8  1  0
  8  9  2  3
  8 10  1  0
 10 11  2  3
 11 12  1  0
 12 13  2  0
 13 14  2  0
 14 15  1  0
 15 16  1  0
 16 17  2  0
 17 18  1  0
 18 19  1  0
 18 20  1  0
 20 21  2  0
 14 22  1  0
 22 23  1  0
 23  2  1  0
 21 16  1  0
  1 24  1  0
  1 25  1  0
  1 26  1  0
  2 27  1  6
  3 28  1  0
  6 29  1  0
  9 30  1  0
 10 31  1  0
 11 32  1  0
 12 33  1  0
 15 34  1  0
 17 35  1  0
 19 36  1  0
 19 37  1  0
 19 38  1  0
 20 39  1  0
 22 40  1  0
 22 41  1  0
 23 42  1  0
M  END
>  <candidate_id>  (18) 
CAND_68b80f53f9

>  <source_generator>  (18) 
selfies

>  <parent_mol_id>  (18) 
JAK2_7199fc7e1a

>  <canonical_smiles>  (18) 
C[C@H]1C=C(F)C=NC(=N)C=CC=C=C(Nc2cn(C)cn2)CN1

>  <inchikey>  (18) 
REMYHBKMAUOXED-GFKGLTBGSA-N

>  <valid_rdkit>  (18) 
True

>  <unique_flag>  (18) 
True

>  <novel_flag>  (18) 
True

>  <mw>  (18) 
314.368

>  <logp>  (18) 
2.3204

>  <tpsa>  (18) 
78.09

>  <hbd>  (18) 
3

>  <hba>  (18) 
4

>  <rotatable_bonds>  (18) 
2

>  <qed>  (18) 
0.7331

>  <sa_score>  (18) 
3.2

>  <murcko_scaffold>  (18) 
N=C1C=CC=C=C(Nc2c[nH]cn2)CNCC=CC=N1

>  <max_ring_size>  (18) 
13

>  <has_macrocycle_12_20>  (18) 
True

>  <has_constrained_ring_8_11>  (18) 
False

>  <passes_basic_filters>  (18) 
True

>  <generation_notes>  (18) 
selfies_token_mutation

>  <best_score>  (18) 
nan

>  <qed_admet>  (18) 
0.7331

>  <sa_score_admet>  (18) 
3.2

>  <mw_admet>  (18) 
314.368

>  <logp_admet>  (18) 
2.3204

>  <tpsa_admet>  (18) 
78.09

>  <hbd_admet>  (18) 
3

>  <hba_admet>  (18) 
4

>  <rotatable_bonds_admet>  (18) 
2

>  <lipinski_violations>  (18) 
0

>  <veber_pass>  (18) 
True

>  <admet_score>  (18) 
0.879895

>  <synthesis_score>  (18) 
0.755556

>  <safety_proxy_score>  (18) 
1.0

>  <main_risk>  (18) 
no_major_descriptor_risk

>  <pose_score>  (18) 
0.5

>  <pose_decision>  (18) 
nan

>  <contacts_within_4A>  (18) 
nan

>  <hard_clashes_lt_1_8A>  (18) 
nan

>  <smiles>  (18) 
C[C@H]1C=C(F)C=NC(=N)C=CC=C=C(Nc2cn(C)cn2)CN1

>  <docking_score>  (18) 
nan

>  <diversity_cluster>  (18) 
scaffold_d77d8a2a

>  <docking_score_scaled>  (18) 
0.0

>  <novelty_score>  (18) 
1.0

>  <final_weighted_score>  (18) 
0.514312

>  <rank>  (18) 
452

>  <decision>  (18) 
await_docking

>  <diverse_rank>  (18) 
358

>  <selection_tier>  (18) 
await_docking

$$$$
CAND_f3d4556a8b
     RDKit          3D

 48 51  0  0  0  0  0  0  0  0999 V2000
    2.3474    1.6587   -0.5115 O   0  0  0  0  0  0  0  0  0  0  0  0
    2.0488    0.5210   -0.8804 C   0  0  0  0  0  0  0  0  0  0  0  0
    3.0173   -0.6525   -0.7568 C   0  0  0  0  0  0  0  0  0  0  0  0
    4.2497   -0.3645    0.0686 C   0  0  0  0  0  0  0  0  0  0  0  0
    5.4352    0.0646   -0.5439 C   0  0  0  0  0  0  0  0  0  0  0  0
    6.5704    0.3319    0.2232 C   0  0  0  0  0  0  0  0  0  0  0  0
    6.5301    0.1789    1.6077 C   0  0  0  0  0  0  0  0  0  0  0  0
    5.3535   -0.2366    2.2279 C   0  0  0  0  0  0  0  0  0  0  0  0
    4.2169   -0.5047    1.4635 C   0  0  0  0  0  0  0  0  0  0  0  0
    0.8055    0.2649   -1.4609 N   0  0  0  0  0  0  0  0  0  0  0  0
   -0.1002    1.4047   -1.6419 C   0  0  0  0  0  0  0  0  0  0  0  0
   -0.8817    1.6630   -0.3760 C   0  0  0  0  0  0  0  0  0  0  0  0
   -2.1769    1.6472   -0.3899 N   0  0  0  0  0  0  0  0  0  0  0  0
   -2.7231    1.8175    0.8413 N   0  0  0  0  0  0  0  0  0  0  0  0
   -2.4807    2.8458    1.7270 C   0  0  0  0  0  0  0  0  0  0  0  0
   -3.2615    2.6598    2.8469 C   0  0  0  0  0  0  0  0  0  0  0  0
   -4.0188    1.4838    2.6367 C   0  0  0  0  0  0  0  0  0  0  0  0
   -3.6758    0.9907    1.3953 C   0  0  0  0  0  0  0  0  0  0  0  0
   -4.2474   -0.3089    0.7559 C   0  0  0  0  0  0  0  0  0  0  0  0
   -5.1717   -1.1962    1.1690 C   0  0  0  0  0  0  0  0  0  0  0  0
   -5.1098   -2.0054   -0.1016 C   0  0  0  0  0  0  0  0  0  0  0  0
   -4.0462   -0.9887   -0.5896 C   0  0  0  0  0  0  0  0  0  0  0  0
   -2.6322   -1.5688   -0.8802 C   0  0  0  0  0  0  0  0  0  0  0  0
   -1.5675   -1.2632   -0.2208 N   0  0  0  0  0  0  0  0  0  0  0  0
   -0.3273   -1.8803   -0.6988 C   0  0  0  0  0  0  0  0  0  0  0  0
    0.3149   -1.0694   -1.8411 C   0  0  0  0  0  0  0  0  0  0  0  0
    2.5086   -1.5127   -0.3118 H   0  0  0  0  0  0  0  0  0  0  0  0
    3.3200   -0.9501   -1.7683 H   0  0  0  0  0  0  0  0  0  0  0  0
    5.4802    0.2025   -1.6215 H   0  0  0  0  0  0  0  0  0  0  0  0
    7.4842    0.6679   -0.2594 H   0  0  0  0  0  0  0  0  0  0  0  0
    7.4126    0.3932    2.2044 H   0  0  0  0  0  0  0  0  0  0  0  0
    5.3179   -0.3444    3.3087 H   0  0  0  0  0  0  0  0  0  0  0  0
    3.3030   -0.8157    1.9647 H   0  0  0  0  0  0  0  0  0  0  0  0
   -0.7723    1.2202   -2.4855 H   0  0  0  0  0  0  0  0  0  0  0  0
    0.4799    2.3077   -1.8591 H   0  0  0  0  0  0  0  0  0  0  0  0
   -0.2830    1.8394    0.5378 H   0  0  0  0  0  0  0  0  0  0  0  0
   -1.7821    3.6304    1.4753 H   0  0  0  0  0  0  0  0  0  0  0  0
   -3.2875    3.3052    3.7151 H   0  0  0  0  0  0  0  0  0  0  0  0
   -4.7355    1.0444    3.3175 H   0  0  0  0  0  0  0  0  0  0  0  0
   -5.7697   -1.2898    2.0701 H   0  0  0  0  0  0  0  0  0  0  0  0
   -4.7533   -3.0362    0.0067 H   0  0  0  0  0  0  0  0  0  0  0  0
   -6.0243   -2.0241   -0.7051 H   0  0  0  0  0  0  0  0  0  0  0  0
   -4.3976   -0.3995   -1.4483 H   0  0  0  0  0  0  0  0  0  0  0  0
   -2.5907   -2.2736   -1.7299 H   0  0  0  0  0  0  0  0  0  0  0  0
    0.3573   -1.9492    0.1524 H   0  0  0  0  0  0  0  0  0  0  0  0
   -0.5059   -2.9091   -1.0363 H   0  0  0  0  0  0  0  0  0  0  0  0
    1.1591   -1.6449   -2.2341 H   0  0  0  0  0  0  0  0  0  0  0  0
   -0.3901   -0.9552   -2.6726 H   0  0  0  0  0  0  0  0  0  0  0  0
  1  2  2  0
  2  3  1  0
  3  4  1  0
  4  5  2  0
  5  6  1  0
  6  7  2  0
  7  8  1  0
  8  9  2  0
  2 10  1  0
 10 11  1  0
 11 12  1  0
 12 13  2  3
 13 14  1  0
 14 15  1  0
 15 16  2  0
 16 17  1  0
 17 18  2  0
 18 19  1  0
 19 20  2  0
 20 21  1  0
 21 22  1  0
 22 23  1  0
 23 24  2  3
 24 25  1  0
 25 26  1  0
  9  4  1  0
 26 10  1  0
 18 14  1  0
 22 19  1  0
  3 27  1  0
  3 28  1  0
  5 29  1  0
  6 30  1  0
  7 31  1  0
  8 32  1  0
  9 33  1  0
 11 34  1  0
 11 35  1  0
 12 36  1  0
 15 37  1  0
 16 38  1  0
 17 39  1  0
 20 40  1  0
 21 41  1  0
 21 42  1  0
 22 43  1  0
 23 44  1  0
 25 45  1  0
 25 46  1  0
 26 47  1  0
 26 48  1  0
M  END
>  <candidate_id>  (19) 
CAND_f3d4556a8b

>  <source_generator>  (19) 
selfies

>  <parent_mol_id>  (19) 
JAK2_725776d8f2

>  <canonical_smiles>  (19) 
O=C(Cc1ccccc1)N1CC=Nn2cccc2C2=CCC2C=NCC1

>  <inchikey>  (19) 
AVCUCXLMZDZFTD-UHFFFAOYSA-N

>  <valid_rdkit>  (19) 
True

>  <unique_flag>  (19) 
True

>  <novel_flag>  (19) 
True

>  <mw>  (19) 
346.434

>  <logp>  (19) 
2.881

>  <tpsa>  (19) 
49.96

>  <hbd>  (19) 
0

>  <hba>  (19) 
3

>  <rotatable_bonds>  (19) 
2

>  <qed>  (19) 
0.8248

>  <sa_score>  (19) 
3.7

>  <murcko_scaffold>  (19) 
O=C(Cc1ccccc1)N1CC=Nn2cccc2C2=CCC2C=NCC1

>  <max_ring_size>  (19) 
12

>  <has_macrocycle_12_20>  (19) 
True

>  <has_constrained_ring_8_11>  (19) 
False

>  <passes_basic_filters>  (19) 
True

>  <generation_notes>  (19) 
selfies_token_mutation

>  <best_score>  (19) 
nan

>  <qed_admet>  (19) 
0.8248

>  <sa_score_admet>  (19) 
3.7

>  <mw_admet>  (19) 
346.434

>  <logp_admet>  (19) 
2.881

>  <tpsa_admet>  (19) 
49.96

>  <hbd_admet>  (19) 
0

>  <hba_admet>  (19) 
3

>  <rotatable_bonds_admet>  (19) 
2

>  <lipinski_violations>  (19) 
0

>  <veber_pass>  (19) 
True

>  <admet_score>  (19) 
0.92116

>  <synthesis_score>  (19) 
0.7

>  <safety_proxy_score>  (19) 
1.0

>  <main_risk>  (19) 
no_major_descriptor_risk

>  <pose_score>  (19) 
0.5

>  <pose_decision>  (19) 
nan

>  <contacts_within_4A>  (19) 
nan

>  <hard_clashes_lt_1_8A>  (19) 
nan

>  <smiles>  (19) 
O=C(Cc1ccccc1)N1CC=Nn2cccc2C2=CCC2C=NCC1

>  <docking_score>  (19) 
nan

>  <diversity_cluster>  (19) 
scaffold_f3d4556a

>  <docking_score_scaled>  (19) 
0.0

>  <novelty_score>  (19) 
1.0

>  <final_weighted_score>  (19) 
0.514232

>  <rank>  (19) 
455

>  <decision>  (19) 
await_docking

>  <diverse_rank>  (19) 
360

>  <selection_tier>  (19) 
await_docking

$$$$
CAND_22d092771b
     RDKit          3D

 47 49  0  0  0  0  0  0  0  0999 V2000
   -4.2910   -2.0579    1.4406 C   0  0  0  0  0  0  0  0  0  0  0  0
   -2.8059   -1.7611    1.6349 C   0  0  1  0  0  0  0  0  0  0  0  0
   -1.9507   -3.0421    1.6814 C   0  0  0  0  0  0  0  0  0  0  0  0
   -1.9963   -3.9526    0.4741 C   0  0  0  0  0  0  0  0  0  0  0  0
   -0.9854   -4.1656   -0.3798 C   0  0  0  0  0  0  0  0  0  0  0  0
   -1.0640   -5.1016   -1.3445 F   0  0  0  0  0  0  0  0  0  0  0  0
    0.2892   -3.4339   -0.2943 C   0  0  0  0  0  0  0  0  0  0  0  0
    0.3427   -2.1660   -0.5283 N   0  0  0  0  0  0  0  0  0  0  0  0
    1.5281   -1.6045   -0.0912 N   0  0  0  0  0  0  0  0  0  0  0  0
    1.5366   -0.2897   -0.0857 C   0  0  0  0  0  0  0  0  0  0  0  0
    2.6750    0.3623    0.3970 N   0  0  0  0  0  0  0  0  0  0  0  0
    2.8202    1.8235    0.4470 C   0  0  0  0  0  0  0  0  0  0  0  0
    4.3023    2.2170    0.5317 C   0  0  0  0  0  0  0  0  0  0  0  0
    4.9763    1.6861    1.6797 O   0  0  0  0  0  0  0  0  0  0  0  0
    4.4496    0.4232    2.1108 C   0  0  0  0  0  0  0  0  0  0  0  0
    3.7900   -0.3938    0.9909 C   0  0  0  0  0  0  0  0  0  0  0  0
    0.4073    0.5377   -0.6488 C   0  0  0  0  0  0  0  0  0  0  0  0
   -0.8878    0.5499   -0.2665 C   0  0  0  0  0  0  0  0  0  0  0  0
   -1.8370    1.3659   -0.8855 N   0  0  0  0  0  0  0  0  0  0  0  0
   -1.7328    2.3870   -1.7602 C   0  0  0  0  0  0  0  0  0  0  0  0
   -0.6263    2.9535   -2.1931 N   0  0  0  0  0  0  0  0  0  0  0  0
   -0.9164    3.9719   -3.0803 C   0  0  0  0  0  0  0  0  0  0  0  0
   -2.2542    4.1907   -3.3119 C   0  0  0  0  0  0  0  0  0  0  0  0
   -2.7948    5.1806   -4.1772 C   0  0  0  0  0  0  0  0  0  0  0  0
   -3.2239    5.9944   -4.8844 N   0  0  0  0  0  0  0  0  0  0  0  0
   -3.1820    3.0904   -2.3942 S   0  0  0  0  0  0  0  0  0  0  0  0
   -1.2929   -0.2850    0.7657 N   0  0  0  0  0  0  0  0  0  0  0  0
   -2.3848   -0.8625    0.5455 N   0  0  0  0  0  0  0  0  0  0  0  0
   -4.6601   -2.7368    2.2160 H   0  0  0  0  0  0  0  0  0  0  0  0
   -4.8752   -1.1325    1.4953 H   0  0  0  0  0  0  0  0  0  0  0  0
   -4.4911   -2.5074    0.4622 H   0  0  0  0  0  0  0  0  0  0  0  0
   -2.6947   -1.2395    2.5953 H   0  0  0  0  0  0  0  0  0  0  0  0
   -2.2810   -3.6417    2.5406 H   0  0  0  0  0  0  0  0  0  0  0  0
   -0.9158   -2.7656    1.9159 H   0  0  0  0  0  0  0  0  0  0  0  0
   -2.9027   -4.5351    0.3345 H   0  0  0  0  0  0  0  0  0  0  0  0
    1.1571   -4.0211    0.0497 H   0  0  0  0  0  0  0  0  0  0  0  0
    2.3979    2.2958   -0.4452 H   0  0  0  0  0  0  0  0  0  0  0  0
    2.2836    2.1981    1.3261 H   0  0  0  0  0  0  0  0  0  0  0  0
    4.8401    1.8718   -0.3594 H   0  0  0  0  0  0  0  0  0  0  0  0
    4.4006    3.3067    0.5685 H   0  0  0  0  0  0  0  0  0  0  0  0
    5.2756   -0.1422    2.5540 H   0  0  0  0  0  0  0  0  0  0  0  0
    3.7260    0.6241    2.9098 H   0  0  0  0  0  0  0  0  0  0  0  0
    4.5197   -0.6140    0.2034 H   0  0  0  0  0  0  0  0  0  0  0  0
    3.4505   -1.3430    1.4192 H   0  0  0  0  0  0  0  0  0  0  0  0
    0.7427    1.1584   -1.4686 H   0  0  0  0  0  0  0  0  0  0  0  0
   -2.7646    1.0805   -0.5901 H   0  0  0  0  0  0  0  0  0  0  0  0
   -0.0995    4.5259   -3.5291 H   0  0  0  0  0  0  0  0  0  0  0  0
  1  2  1  0
  2  3  1  0
  3  4  1  0
  4  5  2  3
  5  6  1  0
  5  7  1  0
  7  8  2  3
  8  9  1  0
  9 10  2  3
 10 11  1  0
 11 12  1  0
 12 13  1  0
 13 14  1  0
 14 15  1  0
 15 16  1  0
 10 17  1  0
 17 18  2  3
 18 19  1  0
 19 20  1  0
 20 21  2  0
 21 22  1  0
 22 23  2  0
 23 24  1  0
 24 25  3  0
 23 26  1  0
 18 27  1  0
 27 28  2  3
 28  2  1  0
 16 11  1  0
 26 20  1  0
  1 29  1  0
  1 30  1  0
  1 31  1  0
  2 32  1  1
  3 33  1  0
  3 34  1  0
  4 35  1  0
  7 36  1  0
 12 37  1  0
 12 38  1  0
 13 39  1  0
 13 40  1  0
 15 41  1  0
 15 42  1  0
 16 43  1  0
 16 44  1  0
 17 45  1  0
 19 46  1  0
 22 47  1  0
M  END
>  <candidate_id>  (20) 
CAND_22d092771b

>  <source_generator>  (20) 
selfies

>  <parent_mol_id>  (20) 
JAK2_349178859a

>  <canonical_smiles>  (20) 
C[C@H]1CC=C(F)C=NN=C(N2CCOCC2)C=C(Nc2ncc(C#N)s2)N=N1

>  <inchikey>  (20) 
PRCZFSOYZBGGNT-LBPRGKRZSA-N

>  <valid_rdkit>  (20) 
True

>  <unique_flag>  (20) 
True

>  <novel_flag>  (20) 
True

>  <mw>  (20) 
402.459

>  <logp>  (20) 
3.0824

>  <tpsa>  (20) 
110.62

>  <hbd>  (20) 
1

>  <hba>  (20) 
10

>  <rotatable_bonds>  (20) 
2

>  <qed>  (20) 
0.8172

>  <sa_score>  (20) 
3.741

>  <murcko_scaffold>  (20) 
C1=CCCN=NC(Nc2nccs2)=CC(N2CCOCC2)=NN=C1

>  <max_ring_size>  (20) 
12

>  <has_macrocycle_12_20>  (20) 
True

>  <has_constrained_ring_8_11>  (20) 
False

>  <passes_basic_filters>  (20) 
True

>  <generation_notes>  (20) 
selfies_token_mutation

>  <best_score>  (20) 
nan

>  <qed_admet>  (20) 
0.8172

>  <sa_score_admet>  (20) 
3.741

>  <mw_admet>  (20) 
402.459

>  <logp_admet>  (20) 
3.0824

>  <tpsa_admet>  (20) 
110.62

>  <hbd_admet>  (20) 
1

>  <hba_admet>  (20) 
10

>  <rotatable_bonds_admet>  (20) 
2

>  <lipinski_violations>  (20) 
0

>  <veber_pass>  (20) 
True

>  <admet_score>  (20) 
0.91774

>  <synthesis_score>  (20) 
0.695444

>  <safety_proxy_score>  (20) 
1.0

>  <main_risk>  (20) 
no_major_descriptor_risk

>  <pose_score>  (20) 
0.5

>  <pose_decision>  (20) 
nan

>  <contacts_within_4A>  (20) 
nan

>  <hard_clashes_lt_1_8A>  (20) 
nan

>  <smiles>  (20) 
C[C@H]1CC=C(F)C=NN=C(N2CCOCC2)C=C(Nc2ncc(C#N)s2)N=N1

>  <docking_score>  (20) 
nan

>  <diversity_cluster>  (20) 
scaffold_5c03cb7d

>  <docking_score_scaled>  (20) 
0.0

>  <novelty_score>  (20) 
1.0

>  <final_weighted_score>  (20) 
0.512865

>  <rank>  (20) 
520

>  <decision>  (20) 
await_docking

>  <diverse_rank>  (20) 
396

>  <selection_tier>  (20) 
await_docking

$$$$
CAND_a1d6bc1fc3
     RDKit          3D

 45 46  0  0  0  0  0  0  0  0999 V2000
    7.0862   -0.1782   -0.1921 C   0  0  0  0  0  0  0  0  0  0  0  0
    5.3159   -0.0549   -0.1509 S   0  0  0  0  0  0  0  0  0  0  0  0
    5.0080    1.3440    0.0730 O   0  0  0  0  0  0  0  0  0  0  0  0
    4.8269   -0.7491   -1.3281 O   0  0  0  0  0  0  0  0  0  0  0  0
    4.9243   -0.9808    1.2600 C   0  0  0  0  0  0  0  0  0  0  0  0
    3.6913   -1.0213    1.7879 C   0  0  0  0  0  0  0  0  0  0  0  0
    2.4875   -0.3809    1.3434 C   0  0  0  0  0  0  0  0  0  0  0  0
    1.9302   -0.3593    0.1258 C   0  0  0  0  0  0  0  0  0  0  0  0
    0.7834    0.4307    0.1233 N   0  0  0  0  0  0  0  0  0  0  0  0
    0.5305    1.3645   -0.9836 C   0  0  0  0  0  0  0  0  0  0  0  0
   -0.7094    2.1551   -0.9617 N   0  0  0  0  0  0  0  0  0  0  0  0
   -1.6167    1.7614   -1.7834 C   0  0  0  0  0  0  0  0  0  0  0  0
   -2.9305    2.5089   -1.8920 C   0  0  0  0  0  0  0  0  0  0  0  0
   -4.1108    1.6821   -1.4717 C   0  0  0  0  0  0  0  0  0  0  0  0
   -4.0834    0.6662   -0.6560 C   0  0  0  0  0  0  0  0  0  0  0  0
   -3.9921   -0.3538    0.1551 C   0  0  0  0  0  0  0  0  0  0  0  0
   -5.2077   -1.6295    0.0698 S   0  0  0  0  0  0  0  0  0  0  0  0
   -4.7573   -2.4550   -1.4374 C   0  0  0  0  0  0  0  0  0  0  0  0
   -4.9996   -2.5836    1.1462 O   0  0  0  0  0  0  0  0  0  0  0  0
   -6.5225   -1.0484   -0.1403 O   0  0  0  0  0  0  0  0  0  0  0  0
   -2.7803   -0.5783    0.9302 C   0  0  0  0  0  0  0  0  0  0  0  0
   -1.9324    0.3801    1.3442 C   0  0  0  0  0  0  0  0  0  0  0  0
   -0.6344    0.1015    2.0472 C   0  0  0  0  0  0  0  0  0  0  0  0
    0.5375    0.8401    1.4983 N   0  0  0  0  0  0  0  0  0  0  0  0
    1.6776    0.3408    2.1937 N   0  0  0  0  0  0  0  0  0  0  0  0
    7.4449    0.3808   -1.0594 H   0  0  0  0  0  0  0  0  0  0  0  0
    7.3709   -1.2281   -0.2866 H   0  0  0  0  0  0  0  0  0  0  0  0
    7.4968    0.2554    0.7221 H   0  0  0  0  0  0  0  0  0  0  0  0
    5.7286   -1.5302    1.7295 H   0  0  0  0  0  0  0  0  0  0  0  0
    3.5550   -1.6032    2.6986 H   0  0  0  0  0  0  0  0  0  0  0  0
    2.2926   -0.7796   -0.8000 H   0  0  0  0  0  0  0  0  0  0  0  0
    1.3550    2.0897   -1.0036 H   0  0  0  0  0  0  0  0  0  0  0  0
    0.6213    0.8092   -1.9276 H   0  0  0  0  0  0  0  0  0  0  0  0
   -1.4916    0.8868   -2.4474 H   0  0  0  0  0  0  0  0  0  0  0  0
   -2.8882    3.4218   -1.2886 H   0  0  0  0  0  0  0  0  0  0  0  0
   -3.0532    2.7979   -2.9413 H   0  0  0  0  0  0  0  0  0  0  0  0
   -5.0850    2.0562   -1.7785 H   0  0  0  0  0  0  0  0  0  0  0  0
   -4.8502   -1.7597   -2.2738 H   0  0  0  0  0  0  0  0  0  0  0  0
   -3.7339   -2.8255   -1.3510 H   0  0  0  0  0  0  0  0  0  0  0  0
   -5.4421   -3.2941   -1.5799 H   0  0  0  0  0  0  0  0  0  0  0  0
   -2.5569   -1.6171    1.1713 H   0  0  0  0  0  0  0  0  0  0  0  0
   -2.1384    1.4317    1.1608 H   0  0  0  0  0  0  0  0  0  0  0  0
   -0.7628    0.4106    3.0929 H   0  0  0  0  0  0  0  0  0  0  0  0
   -0.4419   -0.9810    2.0591 H   0  0  0  0  0  0  0  0  0  0  0  0
    2.0568    0.8174    3.0026 H   0  0  0  0  0  0  0  0  0  0  0  0
  1  2  1  0
  2  3  2  0
  2  4  2  0
  2  5  1  0
  5  6  2  3
  6  7  1  0
  7  8  2  0
  8  9  1  0
  9 10  1  0
 10 11  1  0
 11 12  2  3
 12 13  1  0
 13 14  1  0
 14 15  2  0
 15 16  2  0
 16 17  1  0
 17 18  1  0
 17 19  2  0
 17 20  2  0
 16 21  1  0
 21 22  2  3
 22 23  1  0
 23 24  1  0
 24 25  1  0
 25  7  1  0
 24  9  1  0
  1 26  1  0
  1 27  1  0
  1 28  1  0
  5 29  1  0
  6 30  1  0
  8 31  1  0
 10 32  1  0
 10 33  1  0
 12 34  1  0
 13 35  1  0
 13 36  1  0
 14 37  1  0
 18 38  1  0
 18 39  1  0
 18 40  1  0
 21 41  1  0
 22 42  1  0
 23 43  1  0
 23 44  1  0
 25 45  1  0
M  END
>  <candidate_id>  (21) 
CAND_a1d6bc1fc3

>  <source_generator>  (21) 
selfies

>  <parent_mol_id>  (21) 
JAK2_cb5596e52c

>  <canonical_smiles>  (21) 
CS(=O)(=O)C=CC1=CN2CN=CCC=C=C(S(C)(=O)=O)C=CCN2N1

>  <inchikey>  (21) 
ZUPWVNIBSIJQLQ-UHFFFAOYSA-N

>  <valid_rdkit>  (21) 
True

>  <unique_flag>  (21) 
True

>  <novel_flag>  (21) 
True

>  <mw>  (21) 
384.483

>  <logp>  (21) 
0.4951

>  <tpsa>  (21) 
99.15

>  <hbd>  (21) 
1

>  <hba>  (21) 
8

>  <rotatable_bonds>  (21) 
3

>  <qed>  (21) 
0.7073

>  <sa_score>  (21) 
3.267

>  <murcko_scaffold>  (21) 
C1=CC=CCN2NC=CN2CN=CCC=1

>  <max_ring_size>  (21) 
12

>  <has_macrocycle_12_20>  (21) 
True

>  <has_constrained_ring_8_11>  (21) 
False

>  <passes_basic_filters>  (21) 
True

>  <generation_notes>  (21) 
selfies_token_mutation

>  <best_score>  (21) 
nan

>  <qed_admet>  (21) 
0.7073

>  <sa_score_admet>  (21) 
3.267

>  <mw_admet>  (21) 
384.483

>  <logp_admet>  (21) 
0.4951

>  <tpsa_admet>  (21) 
99.15

>  <hbd_admet>  (21) 
1

>  <hba_admet>  (21) 
8

>  <rotatable_bonds_admet>  (21) 
3

>  <lipinski_violations>  (21) 
0

>  <veber_pass>  (21) 
True

>  <admet_score>  (21) 
0.868285

>  <synthesis_score>  (21) 
0.748111

>  <safety_proxy_score>  (21) 
1.0

>  <main_risk>  (21) 
no_major_descriptor_risk

>  <pose_score>  (21) 
0.5

>  <pose_decision>  (21) 
nan

>  <contacts_within_4A>  (21) 
nan

>  <hard_clashes_lt_1_8A>  (21) 
nan

>  <smiles>  (21) 
CS(=O)(=O)C=CC1=CN2CN=CCC=C=C(S(C)(=O)=O)C=CCN2N1

>  <docking_score>  (21) 
nan

>  <diversity_cluster>  (21) 
scaffold_cc66a2bf

>  <docking_score_scaled>  (21) 
0.0

>  <novelty_score>  (21) 
1.0

>  <final_weighted_score>  (21) 
0.510874

>  <rank>  (21) 
614

>  <decision>  (21) 
await_docking

>  <diverse_rank>  (21) 
445

>  <selection_tier>  (21) 
await_docking

$$$$
CAND_b57d4c3adc
     RDKit          3D

 46 48  0  0  0  0  0  0  0  0999 V2000
    3.7417   -2.9593   -0.2922 C   0  0  0  0  0  0  0  0  0  0  0  0
    3.8273   -1.5302   -0.4902 N   0  0  0  0  0  0  0  0  0  0  0  0
    4.7080   -1.0568   -1.3938 N   0  0  0  0  0  0  0  0  0  0  0  0
    4.4772    0.2559   -1.4008 C   0  0  0  0  0  0  0  0  0  0  0  0
    3.4954    0.6322   -0.4677 C   0  0  0  0  0  0  0  0  0  0  0  0
    3.1357   -0.5486    0.1888 C   0  0  0  0  0  0  0  0  0  0  0  0
    2.2852   -0.8684    1.3909 C   0  0  0  0  0  0  0  0  0  0  0  0
    0.8329   -1.3503    1.2555 C   0  0  0  0  0  0  0  0  0  0  0  0
   -0.2137   -0.5090    1.1055 C   0  0  0  0  0  0  0  0  0  0  0  0
   -1.6656   -0.7772    1.4194 C   0  0  0  0  0  0  0  0  0  0  0  0
   -2.7096   -0.7423    0.2544 C   0  0  0  0  0  0  0  0  0  0  0  0
   -4.1017   -0.9964    0.8854 C   0  0  0  0  0  0  0  0  0  0  0  0
   -2.4198   -1.9037   -0.7085 C   0  0  0  0  0  0  0  0  0  0  0  0
   -1.2418   -1.7858   -1.3446 F   0  0  0  0  0  0  0  0  0  0  0  0
   -2.4056   -3.0875   -0.0487 F   0  0  0  0  0  0  0  0  0  0  0  0
   -3.3820   -1.9954   -1.6577 F   0  0  0  0  0  0  0  0  0  0  0  0
   -2.7669    0.5796   -0.5871 C   0  0  0  0  0  0  0  0  0  0  0  0
   -3.1190    1.8587    0.1322 C   0  0  0  0  0  3  0  0  0  0  0  0
   -2.3254    2.9851    0.2146 N   0  0  0  0  0  0  0  0  0  0  0  0
   -1.0745    3.1887   -0.2984 C   0  0  0  0  0  0  0  0  0  0  0  0
   -0.1197    3.6827    0.4287 N   0  0  0  0  0  0  0  0  0  0  0  0
    1.1882    3.4047    0.0607 C   0  0  0  0  0  0  0  0  0  0  0  0
    1.6986    2.1846   -0.2177 C   0  0  0  0  0  0  0  0  0  0  0  0
    3.0618    1.9147   -0.2917 O   0  0  0  0  0  0  0  0  0  0  0  0
    0.7735    1.0509   -0.3905 C   0  0  0  0  0  0  0  0  0  0  0  0
    0.7124    0.4155   -1.4372 O   0  0  0  0  0  0  0  0  0  0  0  0
    0.0773    0.7713    0.7641 N   0  0  0  0  0  0  0  0  0  0  0  0
    2.6892   -3.2466   -0.2407 H   0  0  0  0  0  0  0  0  0  0  0  0
    4.2153   -3.4715   -1.1341 H   0  0  0  0  0  0  0  0  0  0  0  0
    4.2598   -3.2076    0.6371 H   0  0  0  0  0  0  0  0  0  0  0  0
    5.0255    0.8845   -2.0890 H   0  0  0  0  0  0  0  0  0  0  0  0
    2.2952    0.0132    2.0488 H   0  0  0  0  0  0  0  0  0  0  0  0
    2.8089   -1.6276    1.9893 H   0  0  0  0  0  0  0  0  0  0  0  0
    0.6481   -2.3837    1.5371 H   0  0  0  0  0  0  0  0  0  0  0  0
   -1.7339   -1.7524    1.9222 H   0  0  0  0  0  0  0  0  0  0  0  0
   -1.9743   -0.0485    2.1832 H   0  0  0  0  0  0  0  0  0  0  0  0
   -4.1400   -1.9719    1.3837 H   0  0  0  0  0  0  0  0  0  0  0  0
   -4.3474   -0.2394    1.6378 H   0  0  0  0  0  0  0  0  0  0  0  0
   -4.8920   -0.9831    0.1265 H   0  0  0  0  0  0  0  0  0  0  0  0
   -3.5408    0.4562   -1.3583 H   0  0  0  0  0  0  0  0  0  0  0  0
   -1.8427    0.6954   -1.1548 H   0  0  0  0  0  0  0  0  0  0  0  0
   -4.0705    1.9576    0.6465 H   0  0  0  0  0  0  0  0  0  0  0  0
   -2.5717    3.6238    0.9675 H   0  0  0  0  0  0  0  0  0  0  0  0
   -0.9202    2.7104   -1.2831 H   0  0  0  0  0  0  0  0  0  0  0  0
    1.8831    4.2296    0.2036 H   0  0  0  0  0  0  0  0  0  0  0  0
   -0.2612    1.5477    1.3262 H   0  0  0  0  0  0  0  0  0  0  0  0
  1  2  1  0
  2  3  1  0
  3  4  2  0
  4  5  1  0
  5  6  2  0
  6  7  1  0
  7  8  1  0
  8  9  2  3
  9 10  1  0
 10 11  1  0
 11 12  1  0
 11 13  1  0
 13 14  1  0
 13 15  1  0
 13 16  1  0
 11 17  1  0
 17 18  1  0
 18 19  1  0
 19 20  1  0
 20 21  2  3
 21 22  1  0
 22 23  2  3
 23 24  1  0
 23 25  1  0
 25 26  2  0
 25 27  1  0
  6  2  1  0
 27  9  1  0
 24  5  1  0
  1 28  1  0
  1 29  1  0
  1 30  1  0
  4 31  1  0
  7 32  1  0
  7 33  1  0
  8 34  1  0
 10 35  1  0
 10 36  1  0
 12 37  1  0
 12 38  1  0
 12 39  1  0
 17 40  1  0
 17 41  1  0
 18 42  1  0
 19 43  1  0
 20 44  1  0
 22 45  1  0
 27 46  1  0
M  RAD  1  18   2
M  END
>  <candidate_id>  (22) 
CAND_b57d4c3adc

>  <source_generator>  (22) 
selfies

>  <parent_mol_id>  (22) 
JAK2_9e2ca53048

>  <canonical_smiles>  (22) 
Cn1ncc2c1CC=C1CC(C)(C(F)(F)F)C[CH]NC=NC=C(O2)C(=O)N1

>  <inchikey>  (22) 
XPZIOZIQKYVGFV-UHFFFAOYSA-N

>  <valid_rdkit>  (22) 
True

>  <unique_flag>  (22) 
True

>  <novel_flag>  (22) 
True

>  <mw>  (22) 
382.366

>  <logp>  (22) 
2.3386

>  <tpsa>  (22) 
80.54

>  <hbd>  (22) 
2

>  <hba>  (22) 
5

>  <rotatable_bonds>  (22) 
0

>  <qed>  (22) 
0.7219

>  <sa_score>  (22) 
3.38

>  <murcko_scaffold>  (22) 
O=C1NC2=CCc3[nH]ncc3OC1=CN=CN[CH]CCC2

>  <max_ring_size>  (22) 
12

>  <has_macrocycle_12_20>  (22) 
True

>  <has_constrained_ring_8_11>  (22) 
False

>  <passes_basic_filters>  (22) 
True

>  <generation_notes>  (22) 
selfies_token_mutation

>  <best_score>  (22) 
nan

>  <qed_admet>  (22) 
0.7219

>  <sa_score_admet>  (22) 
3.38

>  <mw_admet>  (22) 
382.366

>  <logp_admet>  (22) 
2.3386

>  <tpsa_admet>  (22) 
80.54

>  <hbd_admet>  (22) 
2

>  <hba_admet>  (22) 
5

>  <rotatable_bonds_admet>  (22) 
0

>  <lipinski_violations>  (22) 
0

>  <veber_pass>  (22) 
True

>  <admet_score>  (22) 
0.874855

>  <synthesis_score>  (22) 
0.735556

>  <safety_proxy_score>  (22) 
1.0

>  <main_risk>  (22) 
no_major_descriptor_risk

>  <pose_score>  (22) 
0.5

>  <pose_decision>  (22) 
nan

>  <contacts_within_4A>  (22) 
nan

>  <hard_clashes_lt_1_8A>  (22) 
nan

>  <smiles>  (22) 
Cn1ncc2c1CC=C1CC(C)(C(F)(F)F)C[CH]NC=NC=C(O2)C(=O)N1

>  <docking_score>  (22) 
nan

>  <diversity_cluster>  (22) 
scaffold_73e69397

>  <docking_score_scaled>  (22) 
0.0

>  <novelty_score>  (22) 
1.0

>  <final_weighted_score>  (22) 
0.510304

>  <rank>  (22) 
639

>  <decision>  (22) 
await_docking

>  <diverse_rank>  (22) 
461

>  <selection_tier>  (22) 
await_docking

$$$$
CAND_764d7e347a
     RDKit          3D

 39 40  0  0  0  0  0  0  0  0999 V2000
    0.3259   -2.0869    3.1818 F   0  0  0  0  0  0  0  0  0  0  0  0
    0.3427   -1.4548    1.9718 C   0  0  0  0  0  0  0  0  0  0  0  0
    1.7724   -1.2718    1.5028 C   0  0  0  0  0  0  0  0  0  0  0  0
    2.1774   -0.1219    1.0932 N   0  0  0  0  0  0  0  0  0  0  0  0
    3.5677    0.0001    0.6809 C   0  0  0  0  0  0  0  0  0  0  0  0
    3.6992    0.5135   -0.6744 N   0  0  0  0  0  0  0  0  0  0  0  0
    3.3428    1.9276   -0.8413 C   0  0  0  0  0  0  0  0  0  0  0  0
    1.8594    2.1022   -0.9033 C   0  0  0  0  0  0  0  0  0  0  0  0
    1.1183    2.3875   -1.9888 C   0  0  0  0  0  0  0  0  0  0  0  0
   -0.3043    2.1024   -1.9871 C   0  0  0  0  0  0  0  0  0  0  0  0
   -1.1050    2.3091   -0.9269 C   0  0  0  0  0  0  0  0  0  0  0  0
   -2.2839    1.4127   -0.6443 C   0  0  0  0  0  0  0  0  0  0  0  0
   -1.7365   -0.0035   -0.3726 C   0  0  0  0  0  0  0  0  0  0  0  0
   -2.5010   -0.7976    0.6909 C   0  0  0  0  0  0  0  0  0  0  0  0
   -3.7948   -1.1609    0.1692 N   0  0  0  0  0  0  0  0  0  0  0  0
   -3.7888   -2.5165    0.0868 C   0  0  0  0  0  0  0  0  0  0  0  0
   -2.7118   -3.1219    0.5097 N   0  0  0  0  0  0  0  0  0  0  0  0
   -1.9029   -2.1159    1.0293 N   0  0  0  0  0  0  0  0  0  0  0  0
   -0.4475   -2.2908    0.9540 C   0  0  0  0  0  0  0  0  0  0  0  0
   -0.1000   -0.4644    2.1180 H   0  0  0  0  0  0  0  0  0  0  0  0
    2.4159   -2.1686    1.5232 H   0  0  0  0  0  0  0  0  0  0  0  0
    4.0868   -0.9653    0.7186 H   0  0  0  0  0  0  0  0  0  0  0  0
    4.0988    0.6507    1.3856 H   0  0  0  0  0  0  0  0  0  0  0  0
    3.1030   -0.0423   -1.2825 H   0  0  0  0  0  0  0  0  0  0  0  0
    3.7954    2.2778   -1.7762 H   0  0  0  0  0  0  0  0  0  0  0  0
    3.7690    2.5441   -0.0418 H   0  0  0  0  0  0  0  0  0  0  0  0
    1.3559    1.8648    0.0301 H   0  0  0  0  0  0  0  0  0  0  0  0
    1.5864    2.5777   -2.9508 H   0  0  0  0  0  0  0  0  0  0  0  0
   -0.6358    1.4696   -2.8094 H   0  0  0  0  0  0  0  0  0  0  0  0
   -0.7534    2.9056   -0.0864 H   0  0  0  0  0  0  0  0  0  0  0  0
   -2.9908    1.4099   -1.4810 H   0  0  0  0  0  0  0  0  0  0  0  0
   -2.8124    1.8022    0.2330 H   0  0  0  0  0  0  0  0  0  0  0  0
   -1.7130   -0.5588   -1.3209 H   0  0  0  0  0  0  0  0  0  0  0  0
   -0.6955    0.0875   -0.0455 H   0  0  0  0  0  0  0  0  0  0  0  0
   -2.6123   -0.2109    1.6094 H   0  0  0  0  0  0  0  0  0  0  0  0
   -4.5312   -0.5289   -0.0933 H   0  0  0  0  0  0  0  0  0  0  0  0
   -4.6699   -3.0035   -0.3570 H   0  0  0  0  0  0  0  0  0  0  0  0
   -0.1002   -2.1148   -0.0711 H   0  0  0  0  0  0  0  0  0  0  0  0
   -0.2261   -3.3452    1.1663 H   0  0  0  0  0  0  0  0  0  0  0  0
  1  2  1  0
  2  3  1  0
  3  4  2  3
  4  5  1  0
  5  6  1  0
  6  7  1  0
  7  8  1  0
  8  9  2  3
  9 10  1  0
 10 11  2  3
 11 12  1  0
 12 13  1  0
 13 14  1  0
 14 15  1  0
 15 16  1  0
 16 17  2  0
 17 18  1  0
 18 19  1  0
 19  2  1  0
 18 14  1  0
  2 20  1  0
  3 21  1  0
  5 22  1  0
  5 23  1  0
  6 24  1  0
  7 25  1  0
  7 26  1  0
  8 27  1  0
  9 28  1  0
 10 29  1  0
 11 30  1  0
 12 31  1  0
 12 32  1  0
 13 33  1  0
 13 34  1  0
 14 35  1  0
 15 36  1  0
 16 37  1  0
 19 38  1  0
 19 39  1  0
M  END
>  <candidate_id>  (23) 
CAND_764d7e347a

>  <source_generator>  (23) 
selfies

>  <parent_mol_id>  (23) 
JAK2_34d30ab507

>  <canonical_smiles>  (23) 
FC1C=NCNCC=CC=CCCC2NC=NN2C1

>  <inchikey>  (23) 
YWKAXDXRDLGJKU-UHFFFAOYSA-N

>  <valid_rdkit>  (23) 
True

>  <unique_flag>  (23) 
True

>  <novel_flag>  (23) 
True

>  <mw>  (23) 
265.336

>  <logp>  (23) 
1.0232

>  <tpsa>  (23) 
52.02

>  <hbd>  (23) 
2

>  <hba>  (23) 
5

>  <rotatable_bonds>  (23) 
0

>  <qed>  (23) 
0.6874

>  <sa_score>  (23) 
3.2

>  <murcko_scaffold>  (23) 
C1=CCCC2NC=NN2CCC=NCNCC=C1

>  <max_ring_size>  (23) 
15

>  <has_macrocycle_12_20>  (23) 
True

>  <has_constrained_ring_8_11>  (23) 
False

>  <passes_basic_filters>  (23) 
True

>  <generation_notes>  (23) 
selfies_token_mutation

>  <best_score>  (23) 
nan

>  <qed_admet>  (23) 
0.6874

>  <sa_score_admet>  (23) 
3.2

>  <mw_admet>  (23) 
265.336

>  <logp_admet>  (23) 
1.0232

>  <tpsa_admet>  (23) 
52.02

>  <hbd_admet>  (23) 
2

>  <hba_admet>  (23) 
5

>  <rotatable_bonds_admet>  (23) 
0

>  <lipinski_violations>  (23) 
0

>  <veber_pass>  (23) 
True

>  <admet_score>  (23) 
0.85933

>  <synthesis_score>  (23) 
0.755556

>  <safety_proxy_score>  (23) 
1.0

>  <main_risk>  (23) 
no_major_descriptor_risk

>  <pose_score>  (23) 
0.5

>  <pose_decision>  (23) 
nan

>  <contacts_within_4A>  (23) 
nan

>  <hard_clashes_lt_1_8A>  (23) 
nan

>  <smiles>  (23) 
FC1C=NCNCC=CC=CCCC2NC=NN2C1

>  <docking_score>  (23) 
nan

>  <diversity_cluster>  (23) 
scaffold_ffdc910c

>  <docking_score_scaled>  (23) 
0.0

>  <novelty_score>  (23) 
1.0

>  <final_weighted_score>  (23) 
0.510199

>  <rank>  (23) 
643

>  <decision>  (23) 
await_docking

>  <diverse_rank>  (23) 
463

>  <selection_tier>  (23) 
await_docking

$$$$
CAND_f5e0e8639b
     RDKit          3D

 47 49  0  0  0  0  0  0  0  0999 V2000
    5.5734   -0.2084    0.4566 O   0  0  0  0  0  0  0  0  0  0  0  0
    4.4293    0.4191    1.1093 S   0  0  0  0  0  0  0  0  0  0  0  0
    4.7175    1.2373    2.2838 O   0  0  0  0  0  0  0  0  0  0  0  0
    3.5972    1.4051   -0.0168 C   0  0  0  0  0  0  0  0  0  0  0  0
    2.3506    1.3385   -0.5336 C   0  0  0  0  0  0  0  0  0  0  0  0
    1.9622    2.5670   -1.0554 C   0  0  0  0  0  0  0  0  0  0  0  0
    0.8925    3.1693   -1.6865 N   0  0  0  0  0  0  0  0  0  0  0  0
   -0.3906    2.8272   -1.4342 C   0  0  0  0  0  0  0  0  0  0  0  0
   -1.1523    2.5648   -2.5305 N   0  0  0  0  0  0  0  0  0  0  0  0
   -2.3941    1.7432   -2.4039 N   0  0  0  0  0  0  0  0  0  0  0  0
   -2.3964    0.4098   -2.0167 C   0  0  0  0  0  0  0  0  0  0  0  0
   -1.2722   -0.3010   -1.8558 C   0  0  0  0  0  0  0  0  0  0  0  0
   -1.0606   -1.3862   -1.0871 C   0  0  0  0  0  0  0  0  0  0  0  0
    0.1992   -1.7257   -0.6965 C   0  0  0  0  0  0  0  0  0  0  0  0
    1.3784   -1.0338   -0.5754 C   0  0  0  0  0  0  0  0  0  0  0  0
    1.4626    0.3213   -0.6412 C   0  0  0  0  0  0  0  0  0  0  0  0
    2.5050   -1.9321   -0.3706 C   0  0  0  0  0  0  0  0  0  0  0  0
    3.3464   -1.9226    0.6624 C   0  0  0  0  0  0  0  0  0  0  0  0
    3.3425   -0.8514    1.6903 C   0  0  0  0  0  0  0  0  0  0  0  0
   -2.1720   -2.1772   -0.5203 C   0  0  0  0  0  0  0  0  0  0  0  0
   -2.6719   -2.0226    0.7311 C   0  0  0  0  0  0  0  0  0  0  0  0
   -3.8130   -2.8236    1.2756 C   0  0  0  0  0  0  0  0  0  0  0  0
   -4.1360   -3.8810    0.4742 F   0  0  0  0  0  0  0  0  0  0  0  0
   -2.1343   -0.9868    1.6121 C   0  0  0  0  0  0  0  0  0  0  0  0
   -2.6457    0.2584    1.5865 C   0  0  0  0  0  0  0  0  0  0  0  0
   -1.7129    1.3747    1.5826 C   0  0  0  0  0  0  0  0  0  0  0  0
   -1.7933    2.2108    0.5341 C   0  0  0  0  0  0  0  0  0  0  0  0
   -0.7362    2.8030   -0.0952 N   0  0  0  0  0  0  0  0  0  0  0  0
    4.1664    2.3197   -0.1347 H   0  0  0  0  0  0  0  0  0  0  0  0
    2.7631    3.3120   -1.0497 H   0  0  0  0  0  0  0  0  0  0  0  0
   -3.1902    2.3159   -2.1658 H   0  0  0  0  0  0  0  0  0  0  0  0
   -3.3500    0.1128   -1.6035 H   0  0  0  0  0  0  0  0  0  0  0  0
   -0.4241    0.1766   -2.3456 H   0  0  0  0  0  0  0  0  0  0  0  0
    0.2547   -2.7545   -0.3284 H   0  0  0  0  0  0  0  0  0  0  0  0
    0.4998    0.7609   -0.8455 H   0  0  0  0  0  0  0  0  0  0  0  0
    2.6159   -2.7066   -1.1293 H   0  0  0  0  0  0  0  0  0  0  0  0
    4.1464   -2.6560    0.7029 H   0  0  0  0  0  0  0  0  0  0  0  0
    3.7655   -1.2443    2.6210 H   0  0  0  0  0  0  0  0  0  0  0  0
    2.3651   -0.4283    1.9327 H   0  0  0  0  0  0  0  0  0  0  0  0
   -2.6035   -2.9062   -1.2012 H   0  0  0  0  0  0  0  0  0  0  0  0
   -4.7099   -2.2050    1.3795 H   0  0  0  0  0  0  0  0  0  0  0  0
   -3.5599   -3.2384    2.2567 H   0  0  0  0  0  0  0  0  0  0  0  0
   -1.0938   -1.1300    1.9021 H   0  0  0  0  0  0  0  0  0  0  0  0
   -3.6065    0.4399    1.1077 H   0  0  0  0  0  0  0  0  0  0  0  0
   -0.7535    1.2652    2.0767 H   0  0  0  0  0  0  0  0  0  0  0  0
   -2.6745    2.2433   -0.0891 H   0  0  0  0  0  0  0  0  0  0  0  0
    0.1138    2.9260    0.4347 H   0  0  0  0  0  0  0  0  0  0  0  0
  1  2  2  0
  2  3  2  0
  2  4  1  0
  4  5  2  3
  5  6  1  0
  6  7  2  0
  7  8  1  0
  8  9  2  0
  9 10  1  0
 10 11  1  0
 11 12  2  0
 12 13  1  0
 13 14  2  0
 14 15  1  0
 15 16  2  0
 15 17  1  0
 17 18  2  3
 18 19  1  0
 13 20  1  0
 20 21  2  3
 21 22  1  0
 22 23  1  0
 21 24  1  0
 24 25  2  3
 25 26  1  0
 26 27  2  3
 27 28  1  0
 19  2  1  0
 16  5  1  0
 28  8  1  0
  4 29  1  0
  6 30  1  0
 10 31  1  0
 11 32  1  0
 12 33  1  0
 14 34  1  0
 16 35  1  0
 17 36  1  0
 18 37  1  0
 19 38  1  0
 19 39  1  0
 20 40  1  0
 22 41  1  0
 22 42  1  0
 24 43  1  0
 25 44  1  0
 26 45  1  0
 27 46  1  0
 28 47  1  0
M  END
>  <candidate_id>  (24) 
CAND_f5e0e8639b

>  <source_generator>  (24) 
selfies

>  <parent_mol_id>  (24) 
JAK2_4635e8b5a7

>  <canonical_smiles>  (24) 
O=S1(=O)C=C2C=NC3=NNC=CC(=CC(=C2)C=CC1)C=C(CF)C=CC=CN3

>  <inchikey>  (24) 
IPIBUWHEADQONR-UHFFFAOYSA-N

>  <valid_rdkit>  (24) 
True

>  <unique_flag>  (24) 
True

>  <novel_flag>  (24) 
True

>  <mw>  (24) 
398.463

>  <logp>  (24) 
2.7354

>  <tpsa>  (24) 
82.92

>  <hbd>  (24) 
2

>  <hba>  (24) 
6

>  <rotatable_bonds>  (24) 
1

>  <qed>  (24) 
0.7115

>  <sa_score>  (24) 
3.344

>  <murcko_scaffold>  (24) 
O=S1(=O)C=C2C=NC3=NNC=CC(=CC(=C2)C=CC1)C=CC=CC=CN3

>  <max_ring_size>  (24) 
13

>  <has_macrocycle_12_20>  (24) 
True

>  <has_constrained_ring_8_11>  (24) 
False

>  <passes_basic_filters>  (24) 
True

>  <generation_notes>  (24) 
selfies_token_mutation

>  <best_score>  (24) 
nan

>  <qed_admet>  (24) 
0.7115

>  <sa_score_admet>  (24) 
3.344

>  <mw_admet>  (24) 
398.463

>  <logp_admet>  (24) 
2.7354

>  <tpsa_admet>  (24) 
82.92

>  <hbd_admet>  (24) 
2

>  <hba_admet>  (24) 
6

>  <rotatable_bonds_admet>  (24) 
1

>  <lipinski_violations>  (24) 
0

>  <veber_pass>  (24) 
True

>  <admet_score>  (24) 
0.870175

>  <synthesis_score>  (24) 
0.739556

>  <safety_proxy_score>  (24) 
1.0

>  <main_risk>  (24) 
no_major_descriptor_risk

>  <pose_score>  (24) 
0.5

>  <pose_decision>  (24) 
nan

>  <contacts_within_4A>  (24) 
nan

>  <hard_clashes_lt_1_8A>  (24) 
nan

>  <smiles>  (24) 
O=S1(=O)C=C2C=NC3=NNC=CC(=CC(=C2)C=CC1)C=C(CF)C=CC=CN3

>  <docking_score>  (24) 
nan

>  <diversity_cluster>  (24) 
scaffold_8d97cb59

>  <docking_score_scaled>  (24) 
0.0

>  <novelty_score>  (24) 
1.0

>  <final_weighted_score>  (24) 
0.509968

>  <rank>  (24) 
656

>  <decision>  (24) 
await_docking

>  <diverse_rank>  (24) 
469

>  <selection_tier>  (24) 
await_docking

$$$$
CAND_cd3f4c17f2
     RDKit          3D

 44 45  0  0  0  0  0  0  0  0999 V2000
    0.9172   -3.0487    0.3091 C   0  0  0  0  0  0  0  0  0  0  0  0
    0.2703   -2.4859   -0.8338 O   0  0  0  0  0  0  0  0  0  0  0  0
   -0.8304   -1.7150   -0.4236 C   0  0  0  0  0  0  0  0  0  0  0  0
   -2.0324   -2.3282   -0.5013 C   0  0  0  0  0  0  0  0  0  0  0  0
   -3.3263   -2.0095   -0.2279 O   0  0  0  0  0  0  0  0  0  0  0  0
   -3.7180   -0.9119    0.5972 C   0  0  0  0  0  0  0  0  0  0  0  0
   -3.8372    0.3259   -0.2326 C   0  0  0  0  0  0  0  0  0  0  0  0
   -3.2448    1.5207   -0.0445 C   0  0  0  0  0  0  0  0  0  0  0  0
   -2.4192    1.8495    1.1069 C   0  0  0  0  0  0  0  0  0  0  0  0
   -1.4011    1.1551    1.6385 C   0  0  0  0  0  0  0  0  0  0  0  0
   -0.9164   -0.0690    1.2824 O   0  0  0  0  0  0  0  0  0  0  0  0
   -0.5107   -0.2464   -0.0879 C   0  0  0  0  0  0  0  0  0  0  0  0
    0.9130    0.0185   -0.2596 N   0  0  0  0  0  0  0  0  0  0  0  0
    1.5491    0.7099   -1.1331 C   0  0  0  0  0  0  0  0  0  0  0  0
    2.9486    0.7223   -1.0628 N   0  0  0  0  0  0  0  0  0  0  0  0
    3.8326    0.2408   -0.1213 C   0  0  0  0  0  0  0  0  0  0  0  0
    3.6164   -0.2770    1.0957 C   0  0  0  0  0  0  0  0  0  0  0  0
    4.6811   -0.7408    1.9599 C   0  0  0  0  0  0  0  0  0  0  0  0
    4.5349   -1.2911    3.1702 C   0  0  0  0  0  0  0  0  0  0  0  0
    3.0530   -1.5822    3.9783 Cl  0  0  0  0  0  0  0  0  0  0  0  0
    1.0211    1.5130   -2.3141 C   0  0  0  0  0  0  0  0  0  0  0  0
    1.8904    1.4974   -3.3577 F   0  0  0  0  0  0  0  0  0  0  0  0
   -0.0377    2.3248   -2.4257 C   0  0  0  0  0  0  0  0  0  0  0  0
   -0.9705    2.4907   -1.4555 N   0  0  0  0  0  0  0  0  0  0  0  0
   -2.1813    2.7398   -1.8294 C   0  0  0  0  0  0  0  0  0  0  0  0
   -3.2915    2.4805   -1.0535 N   0  0  0  0  0  0  0  0  0  0  0  0
    1.8598   -3.4935   -0.0229 H   0  0  0  0  0  0  0  0  0  0  0  0
    0.2978   -3.8428    0.7398 H   0  0  0  0  0  0  0  0  0  0  0  0
    1.1422   -2.3000    1.0744 H   0  0  0  0  0  0  0  0  0  0  0  0
   -2.0550   -3.3478   -0.8826 H   0  0  0  0  0  0  0  0  0  0  0  0
   -4.7265   -1.1523    0.9555 H   0  0  0  0  0  0  0  0  0  0  0  0
   -3.1079   -0.8565    1.4974 H   0  0  0  0  0  0  0  0  0  0  0  0
   -4.4047    0.1681   -1.1473 H   0  0  0  0  0  0  0  0  0  0  0  0
   -2.6450    2.8169    1.5520 H   0  0  0  0  0  0  0  0  0  0  0  0
   -0.8861    1.4957    2.5295 H   0  0  0  0  0  0  0  0  0  0  0  0
   -1.1104    0.3213   -0.7861 H   0  0  0  0  0  0  0  0  0  0  0  0
    3.4050    1.1628   -1.8561 H   0  0  0  0  0  0  0  0  0  0  0  0
    4.8549    0.3364   -0.4819 H   0  0  0  0  0  0  0  0  0  0  0  0
    2.5981   -0.3531    1.4669 H   0  0  0  0  0  0  0  0  0  0  0  0
    5.6952   -0.6296    1.5815 H   0  0  0  0  0  0  0  0  0  0  0  0
    5.3779   -1.6178    3.7664 H   0  0  0  0  0  0  0  0  0  0  0  0
   -0.1642    2.8605   -3.3640 H   0  0  0  0  0  0  0  0  0  0  0  0
   -2.4592    3.0246   -2.8612 H   0  0  0  0  0  0  0  0  0  0  0  0
   -4.1819    2.5239   -1.5355 H   0  0  0  0  0  0  0  0  0  0  0  0
  1  2  1  0
  2  3  1  0
  3  4  2  3
  4  5  1  0
  5  6  1  0
  6  7  1  0
  7  8  2  3
  8  9  1  0
  9 10  2  3
 10 11  1  0
 11 12  1  0
 12 13  1  0
 13 14  2  3
 14 15  1  0
 15 16  1  0
 16 17  2  3
 17 18  1  0
 18 19  2  3
 19 20  1  0
 14 21  1  0
 21 22  1  0
 21 23  2  3
 23 24  1  0
 24 25  2  3
 25 26  1  0
 12  3  1  0
 26  8  1  0
  1 27  1  0
  1 28  1  0
  1 29  1  0
  4 30  1  0
  6 31  1  0
  6 32  1  0
  7 33  1  0
  9 34  1  0
 10 35  1  0
 12 36  1  0
 15 37  1  0
 16 38  1  0
 17 39  1  0
 18 40  1  0
 19 41  1  0
 23 42  1  0
 25 43  1  0
 26 44  1  0
M  END
>  <candidate_id>  (25) 
CAND_cd3f4c17f2

>  <source_generator>  (25) 
selfies

>  <parent_mol_id>  (25) 
JAK2_640f6a716a

>  <canonical_smiles>  (25) 
COC1=COCC=C2C=COC1N=C(NC=CC=CCl)C(F)=CN=CN2

>  <inchikey>  (25) 
DHWSWNGAVHRDIQ-UHFFFAOYSA-N

>  <valid_rdkit>  (25) 
True

>  <unique_flag>  (25) 
True

>  <novel_flag>  (25) 
True

>  <mw>  (25) 
380.807

>  <logp>  (25) 
2.9414

>  <tpsa>  (25) 
76.47

>  <hbd>  (25) 
2

>  <hba>  (25) 
7

>  <rotatable_bonds>  (25) 
3

>  <qed>  (25) 
0.7361

>  <sa_score>  (25) 
3.496

>  <murcko_scaffold>  (25) 
C1=CN=CNC2=CCOC=CC(N=C1)OC=C2

>  <max_ring_size>  (25) 
12

>  <has_macrocycle_12_20>  (25) 
True

>  <has_constrained_ring_8_11>  (25) 
False

>  <passes_basic_filters>  (25) 
True

>  <generation_notes>  (25) 
selfies_token_mutation

>  <best_score>  (25) 
nan

>  <qed_admet>  (25) 
0.7361

>  <sa_score_admet>  (25) 
3.496

>  <mw_admet>  (25) 
380.807

>  <logp_admet>  (25) 
2.9414

>  <tpsa_admet>  (25) 
76.47

>  <hbd_admet>  (25) 
2

>  <hba_admet>  (25) 
7

>  <rotatable_bonds_admet>  (25) 
3

>  <lipinski_violations>  (25) 
0

>  <veber_pass>  (25) 
True

>  <admet_score>  (25) 
0.881245

>  <synthesis_score>  (25) 
0.722667

>  <safety_proxy_score>  (25) 
1.0

>  <main_risk>  (25) 
no_major_descriptor_risk

>  <pose_score>  (25) 
0.5

>  <pose_decision>  (25) 
nan

>  <contacts_within_4A>  (25) 
nan

>  <hard_clashes_lt_1_8A>  (25) 
nan

>  <smiles>  (25) 
COC1=COCC=C2C=COC1N=C(NC=CC=CCl)C(F)=CN=CN2

>  <docking_score>  (25) 
nan

>  <diversity_cluster>  (25) 
scaffold_85082c34

>  <docking_score_scaled>  (25) 
0.0

>  <novelty_score>  (25) 
1.0

>  <final_weighted_score>  (25) 
0.509649

>  <rank>  (25) 
669

>  <decision>  (25) 
await_docking

>  <diverse_rank>  (25) 
477

>  <selection_tier>  (25) 
await_docking

$$$$
CAND_a5703c232e
     RDKit          3D

 40 41  0  0  0  0  0  0  0  0999 V2000
   -4.6805   -1.0451   -0.9959 C   0  0  0  0  0  0  0  0  0  0  0  0
   -3.8193   -1.5004    0.1611 C   0  0  0  0  0  0  0  0  0  0  0  0
   -2.3812   -1.7644   -0.1075 C   0  0  0  0  0  0  0  0  0  0  0  0
   -1.4076   -2.0797    0.7715 C   0  0  0  0  0  0  0  0  0  0  0  0
   -0.2160   -1.1725    0.6892 C   0  0  0  0  0  0  0  0  0  0  0  0
   -0.0837   -0.3152   -0.2547 N   0  0  0  0  0  0  0  0  0  0  0  0
    0.6789    0.8929   -0.0507 C   0  0  0  0  0  0  0  0  0  0  0  0
    2.0573    0.7870   -0.4679 N   0  0  0  0  0  0  0  0  0  0  0  0
    2.8646   -0.1411    0.3127 C   0  0  0  0  0  0  0  0  0  0  0  0
    4.3241   -0.1120   -0.0585 C   0  0  0  0  0  0  0  0  0  0  0  0
    4.9367    0.7226   -0.9168 C   0  0  0  0  0  0  0  0  0  0  0  0
    6.3966    0.6984   -1.2356 C   0  0  0  0  0  0  0  0  0  0  0  0
    7.0455   -0.2959   -0.5696 F   0  0  0  0  0  0  0  0  0  0  0  0
    0.6425    1.5404    1.2388 N   0  0  0  0  0  0  0  0  0  0  0  0
   -0.6846    1.7508    1.8179 C   0  0  0  0  0  0  0  0  0  0  0  0
   -1.7195    2.1156    0.8917 O   0  0  0  0  0  0  0  0  0  0  0  0
   -2.7477    1.2014    0.7575 C   0  0  0  0  0  0  0  0  0  0  0  0
   -3.2888    0.4356    1.7203 C   0  0  0  0  0  0  0  0  0  0  0  0
   -4.0587   -0.7793    1.6659 C   0  0  0  0  0  0  0  0  0  0  0  0
   -4.4923   -1.9447    1.2628 C   0  0  0  0  0  0  0  0  0  0  0  0
   -5.6288   -0.6035   -0.6666 H   0  0  0  0  0  0  0  0  0  0  0  0
   -4.9159   -1.8995   -1.6408 H   0  0  0  0  0  0  0  0  0  0  0  0
   -4.1683   -0.2991   -1.6121 H   0  0  0  0  0  0  0  0  0  0  0  0
   -2.0604   -1.3362   -1.0599 H   0  0  0  0  0  0  0  0  0  0  0  0
   -1.6251   -2.4411    1.7702 H   0  0  0  0  0  0  0  0  0  0  0  0
    0.4059   -1.1615    1.6020 H   0  0  0  0  0  0  0  0  0  0  0  0
    0.2390    1.6143   -0.7516 H   0  0  0  0  0  0  0  0  0  0  0  0
    2.0217    0.4258   -1.4185 H   0  0  0  0  0  0  0  0  0  0  0  0
    2.8035    0.0812    1.3842 H   0  0  0  0  0  0  0  0  0  0  0  0
    2.5121   -1.1680    0.1639 H   0  0  0  0  0  0  0  0  0  0  0  0
    4.9299   -0.8620    0.4497 H   0  0  0  0  0  0  0  0  0  0  0  0
    4.3616    1.4923   -1.4242 H   0  0  0  0  0  0  0  0  0  0  0  0
    6.5472    0.5351   -2.3065 H   0  0  0  0  0  0  0  0  0  0  0  0
    6.8619    1.6476   -0.9552 H   0  0  0  0  0  0  0  0  0  0  0  0
    1.0756    2.4474    1.0891 H   0  0  0  0  0  0  0  0  0  0  0  0
   -0.6103    2.5728    2.5394 H   0  0  0  0  0  0  0  0  0  0  0  0
   -0.9258    0.8676    2.4168 H   0  0  0  0  0  0  0  0  0  0  0  0
   -2.9783    1.1213   -0.2966 H   0  0  0  0  0  0  0  0  0  0  0  0
   -3.0330    0.6686    2.7533 H   0  0  0  0  0  0  0  0  0  0  0  0
   -5.1786   -2.6975    1.5823 H   0  0  0  0  0  0  0  0  0  0  0  0
  1  2  1  0
  2  3  1  0
  3  4  2  3
  4  5  1  0
  5  6  2  3
  6  7  1  0
  7  8  1  0
  8  9  1  0
  9 10  1  0
 10 11  2  3
 11 12  1  0
 12 13  1  0
  7 14  1  0
 14 15  1  0
 15 16  1  0
 16 17  1  0
 17 18  2  3
 18 19  1  0
 19 20  2  0
 19  2  1  0
 20  2  1  0
  1 21  1  0
  1 22  1  0
  1 23  1  0
  3 24  1  0
  4 25  1  0
  5 26  1  0
  7 27  1  0
  8 28  1  0
  9 29  1  0
  9 30  1  0
 10 31  1  0
 11 32  1  0
 12 33  1  0
 12 34  1  0
 14 35  1  0
 15 36  1  0
 15 37  1  0
 17 38  1  0
 18 39  1  0
 20 40  1  0
M  END
>  <candidate_id>  (26) 
CAND_a5703c232e

>  <source_generator>  (26) 
selfies

>  <parent_mol_id>  (26) 
JAK2_ccf270f33b

>  <canonical_smiles>  (26) 
CC12C=CC=NC(NCC=CCF)NCOC=CC1=C2

>  <inchikey>  (26) 
RRVLEOVTZOMEQD-UHFFFAOYSA-N

>  <valid_rdkit>  (26) 
True

>  <unique_flag>  (26) 
True

>  <novel_flag>  (26) 
True

>  <mw>  (26) 
277.343

>  <logp>  (26) 
2.0496

>  <tpsa>  (26) 
45.65

>  <hbd>  (26) 
2

>  <hba>  (26) 
4

>  <rotatable_bonds>  (26) 
4

>  <qed>  (26) 
0.7731

>  <sa_score>  (26) 
3.7

>  <murcko_scaffold>  (26) 
C1=CC2C=C2C=COCNCN=C1

>  <max_ring_size>  (26) 
12

>  <has_macrocycle_12_20>  (26) 
True

>  <has_constrained_ring_8_11>  (26) 
False

>  <passes_basic_filters>  (26) 
True

>  <generation_notes>  (26) 
selfies_token_mutation

>  <best_score>  (26) 
nan

>  <qed_admet>  (26) 
0.7731

>  <sa_score_admet>  (26) 
3.7

>  <mw_admet>  (26) 
277.343

>  <logp_admet>  (26) 
2.0496

>  <tpsa_admet>  (26) 
45.65

>  <hbd_admet>  (26) 
2

>  <hba_admet>  (26) 
4

>  <rotatable_bonds_admet>  (26) 
4

>  <lipinski_violations>  (26) 
0

>  <veber_pass>  (26) 
True

>  <admet_score>  (26) 
0.897895

>  <synthesis_score>  (26) 
0.7

>  <safety_proxy_score>  (26) 
1.0

>  <main_risk>  (26) 
no_major_descriptor_risk

>  <pose_score>  (26) 
0.5

>  <pose_decision>  (26) 
nan

>  <contacts_within_4A>  (26) 
nan

>  <hard_clashes_lt_1_8A>  (26) 
nan

>  <smiles>  (26) 
CC12C=CC=NC(NCC=CCF)NCOC=CC1=C2

>  <docking_score>  (26) 
nan

>  <diversity_cluster>  (26) 
scaffold_15cbba08

>  <docking_score_scaled>  (26) 
0.0

>  <novelty_score>  (26) 
1.0

>  <final_weighted_score>  (26) 
0.509579

>  <rank>  (26) 
673

>  <decision>  (26) 
await_docking

>  <diverse_rank>  (26) 
481

>  <selection_tier>  (26) 
await_docking

$$$$
CAND_8473513606
     RDKit          3D

 46 47  0  0  0  0  0  0  0  0999 V2000
    4.9862    0.2997    1.3102 C   0  0  0  0  0  0  0  0  0  0  0  0
    3.6799    0.1235    0.5371 C   0  0  1  0  0  0  0  0  0  0  0  0
    3.5065    1.2295   -0.5393 C   0  0  0  0  0  0  0  0  0  0  0  0
    2.5560    2.3164   -0.1023 C   0  0  0  0  0  0  0  0  0  0  0  0
    1.3871    2.6522   -0.6720 C   0  0  0  0  0  0  0  0  0  0  0  0
    0.7908    2.0339   -1.8341 C   0  0  0  0  0  0  0  0  0  0  0  0
   -0.2879    1.2317   -1.8130 C   0  0  0  0  0  0  0  0  0  0  0  0
   -1.0133    0.7611   -0.5690 C   0  0  0  0  0  0  0  0  0  0  0  0
   -1.6694   -0.6624   -0.6013 C   0  0  0  0  0  0  0  0  0  0  0  0
   -3.0524   -0.5354   -1.2686 C   0  0  0  0  0  0  0  0  0  0  0  0
   -4.2621   -0.2075   -0.7659 C   0  0  0  0  0  0  0  0  0  0  0  0
   -4.6018    0.2570    0.6237 C   0  0  0  0  0  0  0  0  0  0  0  0
   -4.8244   -0.8821    1.5775 C   0  0  0  0  0  0  0  0  0  0  0  0
   -3.9788   -1.2360    2.5605 C   0  0  0  0  0  0  0  0  0  0  0  0
   -2.7903   -0.6140    2.8410 N   0  0  0  0  0  0  0  0  0  0  0  0
   -1.8916   -0.6108    1.9092 C   0  0  0  0  0  0  0  0  0  0  0  0
   -1.9044   -1.2431    0.7028 N   0  0  0  0  0  0  0  0  0  0  0  0
   -0.9830   -1.6312   -1.4592 N   0  0  0  0  0  0  0  0  0  0  0  0
    0.2411   -1.9821   -1.3415 C   0  0  0  0  0  0  0  0  0  0  0  0
    1.2846   -1.4913   -0.4251 C   0  0  0  0  0  0  0  0  0  0  0  0
    2.5660   -1.7854   -0.6732 C   0  0  0  0  0  0  0  0  0  0  0  0
    3.6707   -1.2004   -0.0956 N   0  0  0  0  0  0  0  0  0  0  0  0
    5.8560    0.2320    0.6472 H   0  0  0  0  0  0  0  0  0  0  0  0
    5.0137    1.2718    1.8132 H   0  0  0  0  0  0  0  0  0  0  0  0
    5.0928   -0.4800    2.0724 H   0  0  0  0  0  0  0  0  0  0  0  0
    2.8649    0.1687    1.2704 H   0  0  0  0  0  0  0  0  0  0  0  0
    3.1698    0.8007   -1.4902 H   0  0  0  0  0  0  0  0  0  0  0  0
    4.4743    1.6972   -0.7606 H   0  0  0  0  0  0  0  0  0  0  0  0
    2.8709    2.8869    0.7706 H   0  0  0  0  0  0  0  0  0  0  0  0
    0.8090    3.4682   -0.2391 H   0  0  0  0  0  0  0  0  0  0  0  0
    1.2390    2.2968   -2.7907 H   0  0  0  0  0  0  0  0  0  0  0  0
   -0.6791    0.8697   -2.7621 H   0  0  0  0  0  0  0  0  0  0  0  0
   -0.3157    0.8248    0.2704 H   0  0  0  0  0  0  0  0  0  0  0  0
   -1.7873    1.5074   -0.3415 H   0  0  0  0  0  0  0  0  0  0  0  0
   -3.0386   -0.7918   -2.3292 H   0  0  0  0  0  0  0  0  0  0  0  0
   -5.1079   -0.2320   -1.4525 H   0  0  0  0  0  0  0  0  0  0  0  0
   -5.5261    0.8468    0.5745 H   0  0  0  0  0  0  0  0  0  0  0  0
   -3.8454    0.9631    0.9826 H   0  0  0  0  0  0  0  0  0  0  0  0
   -5.7461   -1.4449    1.4593 H   0  0  0  0  0  0  0  0  0  0  0  0
   -4.2433   -2.0530    3.2283 H   0  0  0  0  0  0  0  0  0  0  0  0
   -0.9781   -0.0214    2.0858 H   0  0  0  0  0  0  0  0  0  0  0  0
   -2.5485   -2.0208    0.6309 H   0  0  0  0  0  0  0  0  0  0  0  0
    0.5920   -2.7370   -2.0675 H   0  0  0  0  0  0  0  0  0  0  0  0
    1.0078   -0.8126    0.3635 H   0  0  0  0  0  0  0  0  0  0  0  0
    2.8430   -2.4915   -1.4544 H   0  0  0  0  0  0  0  0  0  0  0  0
    4.5736   -1.5722   -0.3832 H   0  0  0  0  0  0  0  0  0  0  0  0
  1  2  1  0
  2  3  1  0
  3  4  1  0
  4  5  2  3
  5  6  1  0
  6  7  2  3
  7  8  1  0
  8  9  1  0
  9 10  1  0
 10 11  2  3
 11 12  1  0
 12 13  1  0
 13 14  2  3
 14 15  1  0
 15 16  2  3
 16 17  1  0
  9 18  1  0
 18 19  2  3
 19 20  1  0
 20 21  2  3
 21 22  1  0
 22  2  1  0
 17  9  1  0
  1 23  1  0
  1 24  1  0
  1 25  1  0
  2 26  1  1
  3 27  1  0
  3 28  1  0
  4 29  1  0
  5 30  1  0
  6 31  1  0
  7 32  1  0
  8 33  1  0
  8 34  1  0
 10 35  1  0
 11 36  1  0
 12 37  1  0
 12 38  1  0
 13 39  1  0
 14 40  1  0
 16 41  1  0
 17 42  1  0
 19 43  1  0
 20 44  1  0
 21 45  1  0
 22 46  1  0
M  END
>  <candidate_id>  (27) 
CAND_8473513606

>  <source_generator>  (27) 
selfies

>  <parent_mol_id>  (27) 
JAK2_efc2226329

>  <canonical_smiles>  (27) 
C[C@H]1CC=CC=CCC2(C=CCC=CN=CN2)N=CC=CN1

>  <inchikey>  (27) 
VWAYBRBXGAAYSA-ZENAZSQFSA-N

>  <valid_rdkit>  (27) 
True

>  <unique_flag>  (27) 
True

>  <novel_flag>  (27) 
True

>  <mw>  (27) 
296.418

>  <logp>  (27) 
3.243

>  <tpsa>  (27) 
48.78

>  <hbd>  (27) 
2

>  <hba>  (27) 
4

>  <rotatable_bonds>  (27) 
0

>  <qed>  (27) 
0.6742

>  <sa_score>  (27) 
3.2

>  <murcko_scaffold>  (27) 
C1=CCCNC=CC=NC2(C=CCC=CN=CN2)CC=C1

>  <max_ring_size>  (27) 
13

>  <has_macrocycle_12_20>  (27) 
True

>  <has_constrained_ring_8_11>  (27) 
False

>  <passes_basic_filters>  (27) 
True

>  <generation_notes>  (27) 
selfies_token_mutation

>  <best_score>  (27) 
nan

>  <qed_admet>  (27) 
0.6742

>  <sa_score_admet>  (27) 
3.2

>  <mw_admet>  (27) 
296.418

>  <logp_admet>  (27) 
3.243

>  <tpsa_admet>  (27) 
48.78

>  <hbd_admet>  (27) 
2

>  <hba_admet>  (27) 
4

>  <rotatable_bonds_admet>  (27) 
0

>  <lipinski_violations>  (27) 
0

>  <veber_pass>  (27) 
True

>  <admet_score>  (27) 
0.85339

>  <synthesis_score>  (27) 
0.755556

>  <safety_proxy_score>  (27) 
1.0

>  <main_risk>  (27) 
no_major_descriptor_risk

>  <pose_score>  (27) 
0.5

>  <pose_decision>  (27) 
nan

>  <contacts_within_4A>  (27) 
nan

>  <hard_clashes_lt_1_8A>  (27) 
nan

>  <smiles>  (27) 
C[C@H]1CC=CC=CCC2(C=CCC=CN=CN2)N=CC=CN1

>  <docking_score>  (27) 
nan

>  <diversity_cluster>  (27) 
scaffold_4bf0ce0a

>  <docking_score_scaled>  (27) 
0.0

>  <novelty_score>  (27) 
1.0

>  <final_weighted_score>  (27) 
0.509011

>  <rank>  (27) 
702

>  <decision>  (27) 
await_docking

>  <diverse_rank>  (27) 
493

>  <selection_tier>  (27) 
await_docking

$$$$
CAND_a337ce9f82
     RDKit          3D

 40 42  0  0  0  0  0  0  0  0999 V2000
   -0.0754   -2.3741    2.4851 C   0  0  0  0  0  0  0  0  0  0  0  0
   -1.0239   -1.4394    1.7307 C   0  0  2  0  0  0  0  0  0  0  0  0
   -2.2619   -1.1366    2.6023 C   0  0  0  0  0  0  0  0  0  0  0  0
   -3.2410   -0.1357    2.0376 C   0  0  0  0  0  0  0  0  0  0  0  0
   -3.0260    1.1769    1.8387 C   0  0  0  0  0  0  0  0  0  0  0  0
   -4.3117    2.1624    1.2206 Cl  0  0  0  0  0  0  0  0  0  0  0  0
   -1.7757    1.8282    2.1471 C   0  0  0  0  0  0  0  0  0  0  0  0
   -0.9647    2.5241    1.3351 C   0  0  0  0  0  0  0  0  0  0  0  0
   -1.0816    2.8927    0.0232 N   0  0  0  0  0  0  0  0  0  0  0  0
   -1.4075    2.0711   -0.9243 C   0  0  0  0  0  0  0  0  0  0  0  0
   -1.7509    0.7639   -0.7634 N   0  0  0  0  0  0  0  0  0  0  0  0
   -0.8536   -0.1552   -0.8899 C   0  0  0  0  0  0  0  0  0  0  0  0
    0.5563   -0.1010   -1.2346 C   0  0  0  0  0  0  0  0  0  0  0  0
    1.3224    0.7829   -1.8897 C   0  0  0  0  0  0  0  0  0  0  0  0
    1.2409    2.0727   -2.5640 N   0  0  0  0  0  0  0  0  0  0  0  0
    2.3972    2.4035   -3.0686 C   0  0  0  0  0  0  0  0  0  0  0  0
    3.6705    1.5988   -3.0059 C   0  0  0  0  0  0  0  0  0  0  0  0
    3.5787    0.4258   -2.3551 C   0  0  0  0  0  0  0  0  0  0  0  0
    2.3947    0.0564   -1.8045 N   0  0  0  0  0  0  0  0  0  0  0  0
    1.7567   -1.0085   -1.1187 C   0  0  0  0  0  0  0  0  0  0  0  0
    1.5787   -2.2300   -1.9022 N   0  0  0  0  0  0  0  0  0  0  0  0
    2.5772   -2.9782   -1.9829 N   0  0  0  0  0  0  0  0  0  0  0  0
   -1.3527   -1.5562   -0.6363 C   0  0  0  0  0  0  0  0  0  0  0  0
   -1.4265   -2.1413    0.5090 N   0  0  0  0  0  0  0  0  0  0  0  0
   -0.5636   -3.3232    2.7331 H   0  0  0  0  0  0  0  0  0  0  0  0
    0.8044   -2.6054    1.8744 H   0  0  0  0  0  0  0  0  0  0  0  0
    0.2701   -1.9127    3.4160 H   0  0  0  0  0  0  0  0  0  0  0  0
   -0.4660   -0.5209    1.5318 H   0  0  0  0  0  0  0  0  0  0  0  0
   -2.8120   -2.0701    2.7836 H   0  0  0  0  0  0  0  0  0  0  0  0
   -1.9417   -0.7876    3.5927 H   0  0  0  0  0  0  0  0  0  0  0  0
   -4.2124   -0.5484    1.7711 H   0  0  0  0  0  0  0  0  0  0  0  0
   -1.4475    1.6920    3.1756 H   0  0  0  0  0  0  0  0  0  0  0  0
   -0.0675    2.9370    1.7962 H   0  0  0  0  0  0  0  0  0  0  0  0
   -1.4563    2.4699   -1.9527 H   0  0  0  0  0  0  0  0  0  0  0  0
    2.4845    3.3621   -3.6066 H   0  0  0  0  0  0  0  0  0  0  0  0
    4.5643    1.9753   -3.4794 H   0  0  0  0  0  0  0  0  0  0  0  0
    4.4067   -0.2634   -2.2470 H   0  0  0  0  0  0  0  0  0  0  0  0
    2.1514   -1.1724   -0.1089 H   0  0  0  0  0  0  0  0  0  0  0  0
    3.4337   -2.6474   -1.5207 H   0  0  0  0  0  0  0  0  0  0  0  0
   -1.6683   -2.0880   -1.5485 H   0  0  0  0  0  0  0  0  0  0  0  0
  1  2  1  0
  2  3  1  0
  3  4  1  0
  4  5  2  3
  5  6  1  0
  5  7  1  0
  7  8  2  3
  8  9  1  0
  9 10  2  3
 10 11  1  0
 11 12  2  3
 12 13  1  0
 13 14  2  0
 14 15  1  0
 15 16  2  0
 16 17  1  0
 17 18  2  0
 18 19  1  0
 19 20  1  0
 20 21  1  0
 21 22  2  3
 12 23  1  0
 23 24  2  3
 24  2  1  0
 20 13  1  0
 19 14  1  0
  1 25  1  0
  1 26  1  0
  1 27  1  0
  2 28  1  6
  3 29  1  0
  3 30  1  0
  4 31  1  0
  7 32  1  0
  8 33  1  0
 10 34  1  0
 16 35  1  0
 17 36  1  0
 18 37  1  0
 20 38  1  0
 22 39  1  0
 23 40  1  0
M  END
>  <candidate_id>  (28) 
CAND_a337ce9f82

>  <source_generator>  (28) 
selfies

>  <parent_mol_id>  (28) 
JAK2_9ce72827e9

>  <canonical_smiles>  (28) 
C[C@@H]1CC=C(Cl)C=CN=CN=C(C2=C3N=CC=CN3C2N=N)C=N1

>  <inchikey>  (28) 
YOFOCIQDUUTRBX-ZVDHGWRTSA-N

>  <valid_rdkit>  (28) 
True

>  <unique_flag>  (28) 
True

>  <novel_flag>  (28) 
True

>  <mw>  (28) 
341.806

>  <logp>  (28) 
3.4375

>  <tpsa>  (28) 
88.89

>  <hbd>  (28) 
1

>  <hba>  (28) 
7

>  <rotatable_bonds>  (28) 
2

>  <qed>  (28) 
0.7658

>  <sa_score>  (28) 
3.7

>  <murcko_scaffold>  (28) 
C1=CCCN=CC(C2=C3N=CC=CN3C2)=NC=NC=C1

>  <max_ring_size>  (28) 
12

>  <has_macrocycle_12_20>  (28) 
True

>  <has_constrained_ring_8_11>  (28) 
False

>  <passes_basic_filters>  (28) 
True

>  <generation_notes>  (28) 
selfies_token_mutation

>  <best_score>  (28) 
nan

>  <qed_admet>  (28) 
0.7658

>  <sa_score_admet>  (28) 
3.7

>  <mw_admet>  (28) 
341.806

>  <logp_admet>  (28) 
3.4375

>  <tpsa_admet>  (28) 
88.89

>  <hbd_admet>  (28) 
1

>  <hba_admet>  (28) 
7

>  <rotatable_bonds_admet>  (28) 
2

>  <lipinski_violations>  (28) 
0

>  <veber_pass>  (28) 
True

>  <admet_score>  (28) 
0.89461

>  <synthesis_score>  (28) 
0.7

>  <safety_proxy_score>  (28) 
1.0

>  <main_risk>  (28) 
no_major_descriptor_risk

>  <pose_score>  (28) 
0.5

>  <pose_decision>  (28) 
nan

>  <contacts_within_4A>  (28) 
nan

>  <hard_clashes_lt_1_8A>  (28) 
nan

>  <smiles>  (28) 
C[C@@H]1CC=C(Cl)C=CN=CN=C(C2=C3N=CC=CN3C2N=N)C=N1

>  <docking_score>  (28) 
nan

>  <diversity_cluster>  (28) 
scaffold_743b0ad4

>  <docking_score_scaled>  (28) 
0.0

>  <novelty_score>  (28) 
1.0

>  <final_weighted_score>  (28) 
0.508922

>  <rank>  (28) 
708

>  <decision>  (28) 
await_docking

>  <diverse_rank>  (28) 
495

>  <selection_tier>  (28) 
await_docking

$$$$
CAND_f8d207ebf9
     RDKit          3D

 49 51  0  0  0  0  0  0  0  0999 V2000
    6.2694   -0.9175   -0.8996 O   0  0  0  0  0  0  0  0  0  0  0  0
    5.6429   -0.9251    0.1582 C   0  0  0  0  0  0  0  0  0  0  0  0
    5.5192   -2.1917    1.0058 C   0  0  0  0  0  0  0  0  0  0  0  0
    4.1029   -2.5678    1.3492 C   0  0  0  0  0  0  0  0  0  0  0  0
    3.1212   -2.7699    0.4590 C   0  0  0  0  0  0  0  0  0  0  0  0
    3.3147   -2.6676   -0.8840 N   0  0  0  0  0  0  0  0  0  0  0  0
    2.3953   -2.1756   -1.6528 C   0  0  0  0  0  0  0  0  0  0  0  0
    1.1748   -1.6127   -1.3719 N   0  0  0  0  0  0  0  0  0  0  0  0
    0.7035   -0.9193   -0.2844 C   0  0  0  0  0  0  0  0  0  0  0  0
   -0.5256   -0.4024   -0.1381 C   0  0  0  0  0  0  0  0  0  0  0  0
   -0.9287    0.3472    1.0336 C   0  0  0  0  0  0  0  0  0  0  0  0
   -2.1704    0.8408    1.1513 C   0  0  0  0  0  0  0  0  0  0  0  0
   -3.1657    0.6395    0.1078 C   0  0  0  0  0  0  0  0  0  0  0  0
   -4.4559    1.1538    0.2657 N   0  0  0  0  0  0  0  0  0  0  0  0
   -5.3868    1.3352   -0.8719 C   0  0  0  0  0  0  0  0  0  0  0  0
   -6.3865    2.4652   -0.5813 C   0  0  0  0  0  0  0  0  0  0  0  0
   -7.2049    2.2321    0.5728 O   0  0  0  0  0  0  0  0  0  0  0  0
   -6.5670    1.4030    1.5530 C   0  0  0  0  0  0  0  0  0  0  0  0
   -5.0359    1.5343    1.5729 C   0  0  0  0  0  0  0  0  0  0  0  0
   -2.7412   -0.0438   -0.9734 C   0  0  0  0  0  0  0  0  0  0  0  0
   -1.4752   -0.5665   -1.1456 O   0  0  0  0  0  0  0  0  0  0  0  0
    2.6938   -2.2684   -2.9889 N   0  0  0  0  0  0  0  0  0  0  0  0
    3.4350   -1.3558   -3.5286 C   0  0  0  0  0  0  0  0  0  0  0  0
    3.8392   -0.2118   -2.7555 C   0  0  0  0  0  0  0  0  0  0  0  0
    4.1643    0.6921   -2.0340 C   0  0  0  0  0  0  0  0  0  0  0  0
    4.4962    1.6863   -1.0749 C   0  0  0  0  0  0  0  0  0  0  0  0
    4.8516    1.4266    0.1923 C   0  0  0  0  0  0  0  0  0  0  0  0
    5.1091    0.2041    0.7737 N   0  0  0  0  0  0  0  0  0  0  0  0
    6.0046   -3.0227    0.4814 H   0  0  0  0  0  0  0  0  0  0  0  0
    6.0823   -2.0257    1.9321 H   0  0  0  0  0  0  0  0  0  0  0  0
    3.8841   -2.7261    2.4011 H   0  0  0  0  0  0  0  0  0  0  0  0
    2.1414   -3.0945    0.8057 H   0  0  0  0  0  0  0  0  0  0  0  0
    0.5505   -1.6003   -2.1707 H   0  0  0  0  0  0  0  0  0  0  0  0
    1.4523   -0.7674    0.4865 H   0  0  0  0  0  0  0  0  0  0  0  0
   -0.2011    0.5168    1.8203 H   0  0  0  0  0  0  0  0  0  0  0  0
   -2.4283    1.4220    2.0277 H   0  0  0  0  0  0  0  0  0  0  0  0
   -5.9215    0.3932   -1.0408 H   0  0  0  0  0  0  0  0  0  0  0  0
   -4.8369    1.5921   -1.7842 H   0  0  0  0  0  0  0  0  0  0  0  0
   -5.8556    3.4118   -0.4254 H   0  0  0  0  0  0  0  0  0  0  0  0
   -7.0566    2.6040   -1.4356 H   0  0  0  0  0  0  0  0  0  0  0  0
   -6.8581    0.3652    1.3520 H   0  0  0  0  0  0  0  0  0  0  0  0
   -6.9801    1.6736    2.5299 H   0  0  0  0  0  0  0  0  0  0  0  0
   -4.7522    2.5699    1.7934 H   0  0  0  0  0  0  0  0  0  0  0  0
   -4.6522    0.8873    2.3697 H   0  0  0  0  0  0  0  0  0  0  0  0
   -3.3526   -0.2836   -1.8304 H   0  0  0  0  0  0  0  0  0  0  0  0
    3.7447   -1.4095   -4.5826 H   0  0  0  0  0  0  0  0  0  0  0  0
    4.3301    2.7182   -1.3696 H   0  0  0  0  0  0  0  0  0  0  0  0
    4.8896    2.2583    0.8926 H   0  0  0  0  0  0  0  0  0  0  0  0
    5.0261    0.1531    1.7814 H   0  0  0  0  0  0  0  0  0  0  0  0
  1  2  2  0
  2  3  1  0
  3  4  1  0
  4  5  2  3
  5  6  1  0
  6  7  2  3
  7  8  1  0
  8  9  1  0
  9 10  2  3
 10 11  1  0
 11 12  2  0
 12 13  1  0
 13 14  1  0
 14 15  1  0
 15 16  1  0
 16 17  1  0
 17 18  1  0
 18 19  1  0
 13 20  2  0
 20 21  1  0
  7 22  1  0
 22 23  2  3
 23 24  1  0
 24 25  3  0
 25 26  1  0
 26 27  2  3
 27 28  1  0
 28  2  1  0
 21 10  1  0
 19 14  1  0
  3 29  1  0
  3 30  1  0
  4 31  1  0
  5 32  1  0
  8 33  1  0
  9 34  1  0
 11 35  1  0
 12 36  1  0
 15 37  1  0
 15 38  1  0
 16 39  1  0
 16 40  1  0
 18 41  1  0
 18 42  1  0
 19 43  1  0
 19 44  1  0
 20 45  1  0
 23 46  1  0
 26 47  1  0
 27 48  1  0
 28 49  1  0
M  END
>  <candidate_id>  (29) 
CAND_f8d207ebf9

>  <source_generator>  (29) 
selfies

>  <parent_mol_id>  (29) 
JAK2_5c84f7cc1c

>  <canonical_smiles>  (29) 
O=C1CC=CN=C(NC=C2C=CC(N3CCOCC3)=CO2)N=CC#CC=CN1

>  <inchikey>  (29) 
RTLHCWQMTAFKCU-UHFFFAOYSA-N

>  <valid_rdkit>  (29) 
True

>  <unique_flag>  (29) 
True

>  <novel_flag>  (29) 
True

>  <mw>  (29) 
379.42

>  <logp>  (29) 
1.1549

>  <tpsa>  (29) 
87.55

>  <hbd>  (29) 
2

>  <hba>  (29) 
7

>  <rotatable_bonds>  (29) 
2

>  <qed>  (29) 
0.7032

>  <sa_score>  (29) 
3.363

>  <murcko_scaffold>  (29) 
O=C1CC=CN=C(NC=C2C=CC(N3CCOCC3)=CO2)N=CC#CC=CN1

>  <max_ring_size>  (29) 
13

>  <has_macrocycle_12_20>  (29) 
True

>  <has_constrained_ring_8_11>  (29) 
False

>  <passes_basic_filters>  (29) 
True

>  <generation_notes>  (29) 
selfies_token_mutation

>  <best_score>  (29) 
nan

>  <qed_admet>  (29) 
0.7032

>  <sa_score_admet>  (29) 
3.363

>  <mw_admet>  (29) 
379.42

>  <logp_admet>  (29) 
1.1549

>  <tpsa_admet>  (29) 
87.55

>  <hbd_admet>  (29) 
2

>  <hba_admet>  (29) 
7

>  <rotatable_bonds_admet>  (29) 
2

>  <lipinski_violations>  (29) 
0

>  <veber_pass>  (29) 
True

>  <admet_score>  (29) 
0.86644

>  <synthesis_score>  (29) 
0.737444

>  <safety_proxy_score>  (29) 
1.0

>  <main_risk>  (29) 
no_major_descriptor_risk

>  <pose_score>  (29) 
0.5

>  <pose_decision>  (29) 
nan

>  <contacts_within_4A>  (29) 
nan

>  <hard_clashes_lt_1_8A>  (29) 
nan

>  <smiles>  (29) 
O=C1CC=CN=C(NC=C2C=CC(N3CCOCC3)=CO2)N=CC#CC=CN1

>  <docking_score>  (29) 
nan

>  <diversity_cluster>  (29) 
scaffold_f8d207eb

>  <docking_score_scaled>  (29) 
0.0

>  <novelty_score>  (29) 
1.0

>  <final_weighted_score>  (29) 
0.508905

>  <rank>  (29) 
713

>  <decision>  (29) 
await_docking

>  <diverse_rank>  (29) 
496

>  <selection_tier>  (29) 
await_docking

$$$$
CAND_c28d6877ef
     RDKit          3D

 37 40  0  0  0  0  0  0  0  0999 V2000
    2.4526    0.6118   -3.0208 O   0  0  0  0  0  0  0  0  0  0  0  0
    2.3830   -0.6001   -2.8863 C   0  0  0  0  0  0  0  0  0  0  0  0
    2.8058   -1.3193   -1.8180 O   0  0  0  0  0  0  0  0  0  0  0  0
    3.3419   -0.5501   -0.7354 C   0  0  0  0  0  0  0  0  0  0  0  0
    2.2566   -0.1301    0.1989 C   0  0  0  0  0  0  0  0  0  0  0  0
    1.8173    1.1270    0.3697 C   0  0  0  0  0  0  0  0  0  0  0  0
    0.8876    1.5739    1.2772 N   0  0  0  0  0  0  0  0  0  0  0  0
   -0.1732    2.4323    1.1230 C   0  0  0  0  0  0  0  0  0  0  0  0
   -0.8780    2.8599    0.1303 N   0  0  0  0  0  0  0  0  0  0  0  0
   -0.6202    2.4690   -1.1505 C   0  0  0  0  0  0  0  0  0  0  0  0
   -0.7103    1.2645   -1.7335 C   0  0  0  0  0  0  0  0  0  0  0  0
   -0.9789   -0.0970   -1.1779 C   0  0  0  0  0  0  0  0  0  0  0  0
   -0.5704   -1.1055   -1.9100 N   0  0  0  0  0  0  0  0  0  0  0  0
   -0.6562   -2.3571   -1.3831 N   0  0  0  0  0  0  0  0  0  0  0  0
    0.2375   -2.7709   -0.3505 O   0  0  0  0  0  0  0  0  0  0  0  0
    0.2711   -1.7843    0.7026 C   0  0  0  0  0  0  0  0  0  0  0  0
    1.3755   -1.9906    1.7973 N   0  0  0  0  0  0  0  0  0  0  0  0
    1.5323   -1.1600    0.8796 C   0  0  0  0  0  0  0  0  0  0  0  0
   -1.0019   -1.0929    1.0915 C   0  0  0  0  0  0  0  0  0  0  0  0
   -1.6193   -1.2615    2.3407 C   0  0  0  0  0  0  0  0  0  0  0  0
   -2.8152   -0.6049    2.6360 C   0  0  0  0  0  0  0  0  0  0  0  0
   -3.5440   -0.8175    4.1798 Cl  0  0  0  0  0  0  0  0  0  0  0  0
   -3.4254    0.2222    1.6935 C   0  0  0  0  0  0  0  0  0  0  0  0
   -2.8368    0.3993    0.4416 C   0  0  0  0  0  0  0  0  0  0  0  0
   -1.6299   -0.2460    0.1524 C   0  0  0  0  0  0  0  0  0  0  0  0
    1.9604   -1.2864   -3.6366 H   0  0  0  0  0  0  0  0  0  0  0  0
    3.9237    0.3031   -1.1061 H   0  0  0  0  0  0  0  0  0  0  0  0
    4.0544   -1.1917   -0.2042 H   0  0  0  0  0  0  0  0  0  0  0  0
    2.2019    1.9320   -0.2562 H   0  0  0  0  0  0  0  0  0  0  0  0
    0.9363    1.1133    2.1848 H   0  0  0  0  0  0  0  0  0  0  0  0
   -0.5166    2.7730    2.1165 H   0  0  0  0  0  0  0  0  0  0  0  0
   -0.3649    3.3038   -1.8042 H   0  0  0  0  0  0  0  0  0  0  0  0
   -0.4509    1.2244   -2.7914 H   0  0  0  0  0  0  0  0  0  0  0  0
   -0.8180   -3.1017   -2.0620 H   0  0  0  0  0  0  0  0  0  0  0  0
   -1.1574   -1.9154    3.0787 H   0  0  0  0  0  0  0  0  0  0  0  0
   -4.3579    0.7303    1.9263 H   0  0  0  0  0  0  0  0  0  0  0  0
   -3.3124    1.0432   -0.2938 H   0  0  0  0  0  0  0  0  0  0  0  0
  1  2  2  0
  2  3  1  0
  3  4  1  0
  4  5  1  0
  5  6  2  3
  6  7  1  0
  7  8  1  0
  8  9  2  3
  9 10  1  0
 10 11  2  3
 11 12  1  0
 12 13  2  0
 13 14  1  0
 14 15  1  0
 15 16  1  0
 16 17  1  0
 17 18  2  0
 16 19  1  0
 19 20  2  0
 20 21  1  0
 21 22  1  0
 21 23  2  0
 23 24  1  0
 24 25  2  0
 18  5  1  0
 25 19  1  0
 25 12  1  0
 18 16  1  0
  2 26  1  0
  4 27  1  0
  4 28  1  0
  6 29  1  0
  7 30  1  0
  8 31  1  0
 10 32  1  0
 11 33  1  0
 14 34  1  0
 20 35  1  0
 23 36  1  0
 24 37  1  0
M  END
>  <candidate_id>  (30) 
CAND_c28d6877ef

>  <source_generator>  (30) 
selfies

>  <parent_mol_id>  (30) 
JAK2_0d061b421e

>  <canonical_smiles>  (30) 
O=COCC1=CNC=NC=CC2=NNOC3(N=C13)c1cc(Cl)ccc12

>  <inchikey>  (30) 
GQUQXGZIRIUGCS-UHFFFAOYSA-N

>  <valid_rdkit>  (30) 
True

>  <unique_flag>  (30) 
True

>  <novel_flag>  (30) 
True

>  <mw>  (30) 
357.757

>  <logp>  (30) 
1.3884

>  <tpsa>  (30) 
96.67

>  <hbd>  (30) 
2

>  <hba>  (30) 
8

>  <rotatable_bonds>  (30) 
3

>  <qed>  (30) 
0.7967

>  <sa_score>  (30) 
3.868

>  <murcko_scaffold>  (30) 
C1=CC2=NNOC3(N=C3C=CNC=N1)c1ccccc12

>  <max_ring_size>  (30) 
12

>  <has_macrocycle_12_20>  (30) 
True

>  <has_constrained_ring_8_11>  (30) 
False

>  <passes_basic_filters>  (30) 
True

>  <generation_notes>  (30) 
selfies_token_mutation

>  <best_score>  (30) 
nan

>  <qed_admet>  (30) 
0.7967

>  <sa_score_admet>  (30) 
3.868

>  <mw_admet>  (30) 
357.757

>  <logp_admet>  (30) 
1.3884

>  <tpsa_admet>  (30) 
96.67

>  <hbd_admet>  (30) 
2

>  <hba_admet>  (30) 
8

>  <rotatable_bonds_admet>  (30) 
3

>  <lipinski_violations>  (30) 
0

>  <veber_pass>  (30) 
True

>  <admet_score>  (30) 
0.908515

>  <synthesis_score>  (30) 
0.681333

>  <safety_proxy_score>  (30) 
1.0

>  <main_risk>  (30) 
no_major_descriptor_risk

>  <pose_score>  (30) 
0.5

>  <pose_decision>  (30) 
nan

>  <contacts_within_4A>  (30) 
nan

>  <hard_clashes_lt_1_8A>  (30) 
nan

>  <smiles>  (30) 
O=COCC1=CNC=NC=CC2=NNOC3(N=C13)c1cc(Cl)ccc12

>  <docking_score>  (30) 
nan

>  <diversity_cluster>  (30) 
scaffold_eaada811

>  <docking_score_scaled>  (30) 
0.0

>  <novelty_score>  (30) 
1.0

>  <final_weighted_score>  (30) 
0.508903

>  <rank>  (30) 
714

>  <decision>  (30) 
await_docking

>  <diverse_rank>  (30) 
497

>  <selection_tier>  (30) 
await_docking

$$$$
CAND_8644fd175c
     RDKit          3D

 41 43  0  0  0  0  0  0  0  0999 V2000
    4.4709   -2.3926   -0.8475 F   0  0  0  0  0  0  0  0  0  0  0  0
    3.3736   -1.6682   -0.5208 C   0  0  0  0  0  0  0  0  0  0  0  0
    2.1847   -2.1943   -0.8586 C   0  0  0  0  0  0  0  0  0  0  0  0
    0.8324   -1.7077   -0.6395 C   0  0  0  0  0  0  0  0  0  0  0  0
   -0.2417   -2.5215   -0.6818 C   0  0  0  0  0  0  0  0  0  0  0  0
   -1.6553   -2.1439   -0.5895 C   0  0  0  0  0  0  0  0  0  0  0  0
   -2.3020   -2.0787    0.5983 C   0  0  0  0  0  0  0  0  0  0  0  0
   -1.6251   -1.7529    1.8240 C   0  0  0  0  0  0  0  0  0  0  0  0
   -1.5268   -0.4913    2.2846 C   0  0  0  0  0  0  0  0  0  0  0  0
   -2.0851    0.8578    1.8209 C   0  0  0  0  0  0  0  0  0  0  0  0
   -3.1289    1.0531    0.6656 C   0  0  0  0  0  0  0  0  0  0  0  0
   -2.7384    0.9438   -0.7945 C   0  0  0  0  0  0  0  0  0  0  0  0
   -2.6269   -0.1938   -1.4213 C   0  0  0  0  0  0  0  0  0  0  0  0
   -2.3395   -1.4420   -1.6801 C   0  0  0  0  0  0  0  0  0  0  0  0
   -1.0455    1.9135    1.9232 N   0  0  0  0  0  0  0  0  0  0  0  0
   -0.4410    2.4845    0.8440 N   0  0  0  0  0  0  0  0  0  0  0  0
    0.4788    1.8184    0.1857 C   0  0  0  0  0  0  0  0  0  0  0  0
    0.7365    0.4991    0.4542 N   0  0  0  0  0  0  0  0  0  0  0  0
    0.5540   -0.2571   -0.5765 C   0  0  0  0  0  0  0  0  0  0  0  0
    1.1434    2.5008   -0.8137 N   0  0  0  0  0  0  0  0  0  0  0  0
    2.2274    2.1654   -1.5955 C   0  0  0  0  0  0  0  0  0  0  0  0
    3.2820    1.3665   -1.3669 C   0  0  0  0  0  0  0  0  0  0  0  0
    3.6132    0.7987   -0.0820 C   0  0  0  0  0  0  0  0  0  0  0  0
    3.6541   -0.4957    0.2658 C   0  0  0  0  0  0  0  0  0  0  0  0
    2.2367   -3.1543   -1.3712 H   0  0  0  0  0  0  0  0  0  0  0  0
   -0.0955   -3.5953   -0.7872 H   0  0  0  0  0  0  0  0  0  0  0  0
   -3.3615   -1.8224    0.6218 H   0  0  0  0  0  0  0  0  0  0  0  0
   -1.1248   -2.5636    2.3470 H   0  0  0  0  0  0  0  0  0  0  0  0
   -0.9283   -0.3862    3.1921 H   0  0  0  0  0  0  0  0  0  0  0  0
   -2.7198    1.0859    2.6950 H   0  0  0  0  0  0  0  0  0  0  0  0
   -3.5568    2.0595    0.7860 H   0  0  0  0  0  0  0  0  0  0  0  0
   -3.9765    0.3793    0.8505 H   0  0  0  0  0  0  0  0  0  0  0  0
   -2.3958    1.8521   -1.2798 H   0  0  0  0  0  0  0  0  0  0  0  0
   -2.3124   -1.8348   -2.6884 H   0  0  0  0  0  0  0  0  0  0  0  0
   -1.4391    2.6665    2.4891 H   0  0  0  0  0  0  0  0  0  0  0  0
    0.1832    0.1532   -1.5360 H   0  0  0  0  0  0  0  0  0  0  0  0
    0.7384    3.4123   -0.9855 H   0  0  0  0  0  0  0  0  0  0  0  0
    2.1684    2.6647   -2.5611 H   0  0  0  0  0  0  0  0  0  0  0  0
    4.0191    1.2160   -2.1523 H   0  0  0  0  0  0  0  0  0  0  0  0
    3.8227    1.5350    0.6941 H   0  0  0  0  0  0  0  0  0  0  0  0
    3.9475   -0.7298    1.2879 H   0  0  0  0  0  0  0  0  0  0  0  0
  1  2  1  0
  2  3  2  3
  3  4  1  0
  4  5  2  3
  5  6  1  0
  6  7  2  3
  7  8  1  0
  8  9  2  3
  9 10  1  0
 10 11  1  0
 11 12  1  0
 12 13  2  0
 13 14  2  0
 10 15  1  0
 15 16  1  0
 16 17  2  3
 17 18  1  0
 18 19  2  3
 17 20  1  0
 20 21  1  0
 21 22  2  3
 22 23  1  0
 23 24  2  3
 24  2  1  0
 19  4  1  0
 14  6  1  0
  3 25  1  0
  5 26  1  0
  7 27  1  0
  8 28  1  0
  9 29  1  0
 10 30  1  0
 11 31  1  0
 11 32  1  0
 12 33  1  0
 14 34  1  0
 15 35  1  0
 19 36  1  0
 20 37  1  0
 21 38  1  0
 22 39  1  0
 23 40  1  0
 24 41  1  0
M  END
>  <candidate_id>  (31) 
CAND_8644fd175c

>  <source_generator>  (31) 
selfies

>  <parent_mol_id>  (31) 
JAK2_99cc6f9557

>  <canonical_smiles>  (31) 
FC1=CC2=CC3=CC=CC(CC=C=C3)NN=C(N=C2)NC=CC=C1

>  <inchikey>  (31) 
ZVWSLKHTRLWGHL-UHFFFAOYSA-N

>  <valid_rdkit>  (31) 
True

>  <unique_flag>  (31) 
True

>  <novel_flag>  (31) 
True

>  <mw>  (31) 
320.371

>  <logp>  (31) 
3.3505

>  <tpsa>  (31) 
48.78

>  <hbd>  (31) 
2

>  <hba>  (31) 
4

>  <rotatable_bonds>  (31) 
0

>  <qed>  (31) 
0.6725

>  <sa_score>  (31) 
3.2

>  <murcko_scaffold>  (31) 
C1=CCC2C=CC=C(C=1)C=C1C=CC=CC=CNC(=NN2)N=C1

>  <max_ring_size>  (31) 
12

>  <has_macrocycle_12_20>  (31) 
True

>  <has_constrained_ring_8_11>  (31) 
False

>  <passes_basic_filters>  (31) 
True

>  <generation_notes>  (31) 
selfies_token_mutation

>  <best_score>  (31) 
nan

>  <qed_admet>  (31) 
0.6725

>  <sa_score_admet>  (31) 
3.2

>  <mw_admet>  (31) 
320.371

>  <logp_admet>  (31) 
3.3505

>  <tpsa_admet>  (31) 
48.78

>  <hbd_admet>  (31) 
2

>  <hba_admet>  (31) 
4

>  <rotatable_bonds_admet>  (31) 
0

>  <lipinski_violations>  (31) 
0

>  <veber_pass>  (31) 
True

>  <admet_score>  (31) 
0.852625

>  <synthesis_score>  (31) 
0.755556

>  <safety_proxy_score>  (31) 
1.0

>  <main_risk>  (31) 
no_major_descriptor_risk

>  <pose_score>  (31) 
0.5

>  <pose_decision>  (31) 
nan

>  <contacts_within_4A>  (31) 
nan

>  <hard_clashes_lt_1_8A>  (31) 
nan

>  <smiles>  (31) 
FC1=CC2=CC3=CC=CC(CC=C=C3)NN=C(N=C2)NC=CC=C1

>  <docking_score>  (31) 
nan

>  <diversity_cluster>  (31) 
scaffold_0a8b4f62

>  <docking_score_scaled>  (31) 
0.0

>  <novelty_score>  (31) 
1.0

>  <final_weighted_score>  (31) 
0.508858

>  <rank>  (31) 
716

>  <decision>  (31) 
await_docking

>  <diverse_rank>  (31) 
499

>  <selection_tier>  (31) 
await_docking

$$$$
CAND_577f2e4a02
     RDKit          3D

 46 47  0  0  0  0  0  0  0  0999 V2000
    0.8436   -3.3564    1.8387 C   0  0  0  0  0  0  0  0  0  0  0  0
    0.6287   -2.1945    0.9796 N   0  0  0  0  0  0  0  0  0  0  0  0
   -0.5704   -1.9505    0.3184 C   0  0  0  0  0  0  0  0  0  0  0  0
   -1.7990   -2.4400    0.5377 C   0  0  0  0  0  0  0  0  0  0  0  0
   -2.9625   -2.0407   -0.0921 N   0  0  0  0  0  0  0  0  0  0  0  0
   -3.0778   -1.1660   -1.1638 C   0  0  0  0  0  0  0  0  0  0  0  0
   -2.1534   -0.8016   -1.8818 O   0  0  0  0  0  0  0  0  0  0  0  0
   -4.4724   -0.6368   -1.3598 C   0  0  0  0  0  0  0  0  0  0  0  0
   -4.6185    0.7443   -1.9471 C   0  0  0  0  0  0  0  0  0  0  0  0
   -3.9515    1.8386   -1.7123 N   0  0  0  0  0  0  0  0  0  0  0  0
   -2.8495    1.7730   -0.9366 N   0  0  0  0  0  0  0  0  0  0  0  0
   -2.1454    2.8839   -0.5324 C   0  0  0  0  0  0  0  0  0  0  0  0
   -1.0747    2.9292    0.2742 C   0  0  0  0  0  0  0  0  0  0  0  0
   -0.6041    1.7284    1.0297 C   0  0  0  0  0  0  0  0  0  0  0  0
   -1.5478    0.8724    1.5168 N   0  0  0  0  0  0  0  0  0  0  0  0
    0.6719    1.6161    1.1699 N   0  0  0  0  0  0  0  0  0  0  0  0
    1.2585    0.4706    1.8647 C   0  0  0  0  0  0  0  0  0  0  0  0
    2.0308   -0.3812    0.8619 C   0  0  0  0  0  0  0  0  0  0  0  0
    3.2244    0.2554    0.2628 C   0  0  0  0  0  0  0  0  0  0  0  0
    4.3818    0.3456    1.0457 C   0  0  0  0  0  0  0  0  0  0  0  0
    5.5243    0.9325    0.5077 C   0  0  0  0  0  0  0  0  0  0  0  0
    6.9516    1.0502    1.4608 Cl  0  0  0  0  0  0  0  0  0  0  0  0
    5.5220    1.4239   -0.7975 C   0  0  0  0  0  0  0  0  0  0  0  0
    4.3651    1.3257   -1.5762 C   0  0  0  0  0  0  0  0  0  0  0  0
    3.2102    0.7383   -1.0502 C   0  0  0  0  0  0  0  0  0  0  0  0
    1.8158    0.6547   -2.0626 Cl  0  0  0  0  0  0  0  0  0  0  0  0
    1.7771   -1.6139    0.5161 N   0  0  0  0  0  0  0  0  0  0  0  0
    0.0528   -3.4382    2.5914 H   0  0  0  0  0  0  0  0  0  0  0  0
    1.7949   -3.2756    2.3768 H   0  0  0  0  0  0  0  0  0  0  0  0
    0.8631   -4.2740    1.2416 H   0  0  0  0  0  0  0  0  0  0  0  0
   -0.4084   -1.2008   -0.4525 H   0  0  0  0  0  0  0  0  0  0  0  0
   -1.9549   -3.1717    1.3248 H   0  0  0  0  0  0  0  0  0  0  0  0
   -3.8205   -2.4362    0.2769 H   0  0  0  0  0  0  0  0  0  0  0  0
   -4.9858   -1.3329   -2.0335 H   0  0  0  0  0  0  0  0  0  0  0  0
   -5.0216   -0.6396   -0.4115 H   0  0  0  0  0  0  0  0  0  0  0  0
   -5.4922    0.8692   -2.6110 H   0  0  0  0  0  0  0  0  0  0  0  0
   -2.2549    0.9332   -0.9636 H   0  0  0  0  0  0  0  0  0  0  0  0
   -2.5076    3.7947   -1.0025 H   0  0  0  0  0  0  0  0  0  0  0  0
   -0.5159    3.8436    0.4292 H   0  0  0  0  0  0  0  0  0  0  0  0
   -2.5275    1.0673    1.3489 H   0  0  0  0  0  0  0  0  0  0  0  0
   -1.3072   -0.0088    1.9404 H   0  0  0  0  0  0  0  0  0  0  0  0
    0.5599   -0.1343    2.4441 H   0  0  0  0  0  0  0  0  0  0  0  0
    1.9725    0.8570    2.6019 H   0  0  0  0  0  0  0  0  0  0  0  0
    4.3912   -0.0457    2.0588 H   0  0  0  0  0  0  0  0  0  0  0  0
    6.4146    1.8821   -1.2160 H   0  0  0  0  0  0  0  0  0  0  0  0
    4.3689    1.7096   -2.5937 H   0  0  0  0  0  0  0  0  0  0  0  0
  1  2  1  0
  2  3  1  0
  3  4  2  3
  4  5  1  0
  5  6  1  0
  6  7  2  0
  6  8  1  0
  8  9  1  0
  9 10  2  3
 10 11  1  0
 11 12  1  0
 12 13  2  3
 13 14  1  0
 14 15  1  0
 14 16  2  3
 16 17  1  0
 17 18  1  0
 18 19  1  0
 19 20  2  0
 20 21  1  0
 21 22  1  0
 21 23  2  0
 23 24  1  0
 24 25  2  0
 25 26  1  0
 18 27  2  3
 27  2  1  0
 25 19  1  0
  1 28  1  0
  1 29  1  0
  1 30  1  0
  3 31  1  0
  4 32  1  0
  5 33  1  0
  8 34  1  0
  8 35  1  0
  9 36  1  0
 11 37  1  0
 12 38  1  0
 13 39  1  0
 15 40  1  0
 15 41  1  0
 17 42  1  0
 17 43  1  0
 20 44  1  0
 23 45  1  0
 24 46  1  0
M  END
>  <candidate_id>  (32) 
CAND_577f2e4a02

>  <source_generator>  (32) 
selfies

>  <parent_mol_id>  (32) 
JAK2_48f4c39175

>  <canonical_smiles>  (32) 
CN1C=CNC(=O)CC=NNC=CC(N)=NCC(c2cc(Cl)ccc2Cl)=N1

>  <inchikey>  (32) 
WNGWMOUPHPGITC-UHFFFAOYSA-N

>  <valid_rdkit>  (32) 
True

>  <unique_flag>  (32) 
True

>  <novel_flag>  (32) 
True

>  <mw>  (32) 
408.293

>  <logp>  (32) 
2.0667

>  <tpsa>  (32) 
107.47

>  <hbd>  (32) 
3

>  <hba>  (32) 
7

>  <rotatable_bonds>  (32) 
1

>  <qed>  (32) 
0.6613

>  <sa_score>  (32) 
3.149

>  <murcko_scaffold>  (32) 
O=C1CC=NNC=CC=NCC(c2ccccc2)=NNC=CN1

>  <max_ring_size>  (32) 
16

>  <has_macrocycle_12_20>  (32) 
True

>  <has_constrained_ring_8_11>  (32) 
False

>  <passes_basic_filters>  (32) 
True

>  <generation_notes>  (32) 
selfies_token_mutation

>  <best_score>  (32) 
nan

>  <qed_admet>  (32) 
0.6613

>  <sa_score_admet>  (32) 
3.149

>  <mw_admet>  (32) 
408.293

>  <logp_admet>  (32) 
2.0667

>  <tpsa_admet>  (32) 
107.47

>  <hbd_admet>  (32) 
3

>  <hba_admet>  (32) 
7

>  <rotatable_bonds_admet>  (32) 
1

>  <lipinski_violations>  (32) 
0

>  <veber_pass>  (32) 
True

>  <admet_score>  (32) 
0.847585

>  <synthesis_score>  (32) 
0.761222

>  <safety_proxy_score>  (32) 
1.0

>  <main_risk>  (32) 
no_major_descriptor_risk

>  <pose_score>  (32) 
0.5

>  <pose_decision>  (32) 
nan

>  <contacts_within_4A>  (32) 
nan

>  <hard_clashes_lt_1_8A>  (32) 
nan

>  <smiles>  (32) 
CN1C=CNC(=O)CC=NNC=CC(N)=NCC(c2cc(Cl)ccc2Cl)=N1

>  <docking_score>  (32) 
nan

>  <diversity_cluster>  (32) 
scaffold_6b73eb83

>  <docking_score_scaled>  (32) 
0.0

>  <novelty_score>  (32) 
1.0

>  <final_weighted_score>  (32) 
0.5087

>  <rank>  (32) 
726

>  <decision>  (32) 
await_docking

>  <diverse_rank>  (32) 
506

>  <selection_tier>  (32) 
await_docking

$$$$
CAND_7dcbdae80a
     RDKit          3D

 38 38  0  0  0  0  0  0  0  0999 V2000
   -1.9169   -2.2004    1.0740 N   0  0  0  0  0  0  0  0  0  0  0  0
   -1.1832   -1.3145    0.2173 C   0  0  0  0  0  0  0  0  0  0  0  0
    0.1869   -1.5439    0.4903 O   0  0  0  0  0  0  0  0  0  0  0  0
    0.8479   -2.3351   -0.4888 C   0  0  0  0  0  0  0  0  0  0  0  0
    2.3635   -2.2031   -0.3139 C   0  0  0  0  0  0  0  0  0  0  0  0
    2.8724   -0.7967   -0.6639 C   0  0  0  0  0  0  0  0  0  0  0  0
    2.8166    0.1917    0.5127 C   0  0  0  0  0  0  0  0  0  0  0  0
    2.7642    1.5829    0.0345 N   0  0  0  0  0  0  0  0  0  0  0  0
    4.2608    2.0957   -0.7557 Cl  0  0  0  0  0  0  0  0  0  0  0  0
    2.2471    2.7885    1.0519 S   0  0  0  0  0  0  0  0  0  0  0  0
    0.6214    3.1849    0.3156 C   0  0  0  0  0  0  0  0  0  0  0  0
   -0.5037    2.2725    0.8146 C   0  0  0  0  0  0  0  0  0  0  0  0
   -0.7311    1.0506   -0.0881 C   0  0  0  0  0  0  0  0  0  0  0  0
   -1.5476    0.0381    0.6050 N   0  0  0  0  0  0  0  0  0  0  0  0
   -2.9934    0.3377    0.5037 C   0  0  0  0  0  0  0  0  0  0  0  0
   -3.7033   -0.0072   -0.8083 C   0  0  0  0  0  0  0  0  0  0  0  0
   -4.9672    0.5009   -0.7689 F   0  0  0  0  0  0  0  0  0  0  0  0
   -1.7615   -1.8183    2.0060 H   0  0  0  0  0  0  0  0  0  0  0  0
   -1.4153   -3.0833    1.0784 H   0  0  0  0  0  0  0  0  0  0  0  0
   -1.4186   -1.5054   -0.8363 H   0  0  0  0  0  0  0  0  0  0  0  0
    0.5694   -2.0187   -1.5011 H   0  0  0  0  0  0  0  0  0  0  0  0
    0.5495   -3.3807   -0.3569 H   0  0  0  0  0  0  0  0  0  0  0  0
    2.8435   -2.9218   -0.9887 H   0  0  0  0  0  0  0  0  0  0  0  0
    2.6559   -2.4624    0.7101 H   0  0  0  0  0  0  0  0  0  0  0  0
    3.9157   -0.8796   -0.9945 H   0  0  0  0  0  0  0  0  0  0  0  0
    2.3063   -0.4132   -1.5224 H   0  0  0  0  0  0  0  0  0  0  0  0
    3.6810    0.0365    1.1717 H   0  0  0  0  0  0  0  0  0  0  0  0
    1.9335   -0.0091    1.1263 H   0  0  0  0  0  0  0  0  0  0  0  0
    0.6846    3.1977   -0.7779 H   0  0  0  0  0  0  0  0  0  0  0  0
    0.3991    4.2093    0.6341 H   0  0  0  0  0  0  0  0  0  0  0  0
   -1.4299    2.8607    0.8329 H   0  0  0  0  0  0  0  0  0  0  0  0
   -0.3161    1.9639    1.8510 H   0  0  0  0  0  0  0  0  0  0  0  0
   -1.1888    1.3604   -1.0355 H   0  0  0  0  0  0  0  0  0  0  0  0
    0.2411    0.6456   -0.3682 H   0  0  0  0  0  0  0  0  0  0  0  0
   -3.1697    1.3984    0.7212 H   0  0  0  0  0  0  0  0  0  0  0  0
   -3.5247   -0.1720    1.3182 H   0  0  0  0  0  0  0  0  0  0  0  0
   -3.7863   -1.0867   -0.9597 H   0  0  0  0  0  0  0  0  0  0  0  0
   -3.2026    0.4360   -1.6730 H   0  0  0  0  0  0  0  0  0  0  0  0
  1  2  1  0
  2  3  1  0
  3  4  1  0
  4  5  1  0
  5  6  1  0
  6  7  1  0
  7  8  1  0
  8  9  1  0
  8 10  1  0
 10 11  1  0
 11 12  1  0
 12 13  1  0
 13 14  1  0
 14 15  1  0
 15 16  1  0
 16 17  1  0
 14  2  1  0
  1 18  1  0
  1 19  1  0
  2 20  1  0
  4 21  1  0
  4 22  1  0
  5 23  1  0
  5 24  1  0
  6 25  1  0
  6 26  1  0
  7 27  1  0
  7 28  1  0
 11 29  1  0
 11 30  1  0
 12 31  1  0
 12 32  1  0
 13 33  1  0
 13 34  1  0
 15 35  1  0
 15 36  1  0
 16 37  1  0
 16 38  1  0
M  END
>  <candidate_id>  (33) 
CAND_7dcbdae80a

>  <source_generator>  (33) 
selfies

>  <parent_mol_id>  (33) 
JAK2_67c546b8f6

>  <canonical_smiles>  (33) 
NC1OCCCCN(Cl)SCCCN1CCF

>  <inchikey>  (33) 
IHWLEUFAGLNZOE-UHFFFAOYSA-N

>  <valid_rdkit>  (33) 
True

>  <unique_flag>  (33) 
True

>  <novel_flag>  (33) 
True

>  <mw>  (33) 
285.816

>  <logp>  (33) 
1.8047

>  <tpsa>  (33) 
41.73

>  <hbd>  (33) 
1

>  <hba>  (33) 
5

>  <rotatable_bonds>  (33) 
2

>  <qed>  (33) 
0.619

>  <sa_score>  (33) 
2.95

>  <murcko_scaffold>  (33) 
C1CCOCNCCCSNC1

>  <max_ring_size>  (33) 
12

>  <has_macrocycle_12_20>  (33) 
True

>  <has_constrained_ring_8_11>  (33) 
False

>  <passes_basic_filters>  (33) 
True

>  <generation_notes>  (33) 
selfies_token_mutation

>  <best_score>  (33) 
nan

>  <qed_admet>  (33) 
0.619

>  <sa_score_admet>  (33) 
2.95

>  <mw_admet>  (33) 
285.816

>  <logp_admet>  (33) 
1.8047

>  <tpsa_admet>  (33) 
41.73

>  <hbd_admet>  (33) 
1

>  <hba_admet>  (33) 
5

>  <rotatable_bonds_admet>  (33) 
2

>  <lipinski_violations>  (33) 
0

>  <veber_pass>  (33) 
True

>  <admet_score>  (33) 
0.82855

>  <synthesis_score>  (33) 
0.783333

>  <safety_proxy_score>  (33) 
1.0

>  <main_risk>  (33) 
no_major_descriptor_risk

>  <pose_score>  (33) 
0.5

>  <pose_decision>  (33) 
nan

>  <contacts_within_4A>  (33) 
nan

>  <hard_clashes_lt_1_8A>  (33) 
nan

>  <smiles>  (33) 
NC1OCCCCN(Cl)SCCCN1CCF

>  <docking_score>  (33) 
nan

>  <diversity_cluster>  (33) 
scaffold_18649410

>  <docking_score_scaled>  (33) 
0.0

>  <novelty_score>  (33) 
1.0

>  <final_weighted_score>  (33) 
0.50821

>  <rank>  (33) 
745

>  <decision>  (33) 
await_docking

>  <diverse_rank>  (33) 
515

>  <selection_tier>  (33) 
await_docking

$$$$
CAND_3d3d2ca880
     RDKit          3D

 39 40  0  0  0  0  0  0  0  0999 V2000
   -3.9441   -1.2023    1.4582 C   0  0  0  0  0  0  0  0  0  0  0  0
   -3.1839    0.3538    1.8898 S   0  0  0  0  0  0  0  0  0  0  0  0
   -2.8438    0.2645    3.3066 O   0  0  0  0  0  0  0  0  0  0  0  0
   -4.1271    1.4134    1.5343 O   0  0  0  0  0  0  0  0  0  0  0  0
   -1.8181    0.3510    0.9011 N   0  0  0  0  0  0  0  0  0  0  0  0
   -0.9223   -0.7524    1.1867 C   0  0  0  0  0  0  0  0  0  0  0  0
   -0.5176   -1.6457    0.2621 N   0  0  0  0  0  0  0  0  0  0  0  0
    0.6200   -2.5119    0.8147 N   0  0  0  0  0  0  0  0  0  0  0  0
    1.8723   -1.9730    0.9154 C   0  0  0  0  0  0  0  0  0  0  0  0
    2.8242   -2.9512    1.0748 N   0  0  0  0  0  0  0  0  0  0  0  0
    3.9111   -3.1868    0.2620 N   0  0  0  0  0  0  0  0  0  0  0  0
    3.7533   -2.6707   -0.9123 C   0  0  0  0  0  0  0  0  0  0  0  0
    4.7677   -2.8475   -1.7864 F   0  0  0  0  0  0  0  0  0  0  0  0
    2.1060   -0.6659    0.7711 N   0  0  0  0  0  0  0  0  0  0  0  0
    3.2700   -0.0015    0.8115 C   0  0  0  0  0  0  0  0  0  0  0  0
    3.4934    1.3148    0.5882 C   0  0  0  0  0  0  0  0  0  0  0  0
    2.6552    2.3039    0.2024 C   0  0  0  0  0  0  0  0  0  0  0  0
    1.3889    2.3601   -0.2655 C   0  0  0  0  0  0  0  0  0  0  0  0
    0.6317    1.3377   -0.6840 C   0  0  0  0  0  0  0  0  0  0  0  0
   -0.8526    1.3995   -1.1624 C   0  0  0  0  0  0  0  0  0  0  0  0
   -1.0779    1.9068   -2.4492 C   0  0  0  0  0  0  0  0  0  0  0  0
   -2.3506    1.8639   -2.9963 C   0  0  0  0  0  0  0  0  0  0  0  0
   -3.3580    1.3035   -2.2352 C   0  0  0  0  0  0  0  0  0  0  0  0
   -3.1924    0.8113   -0.9932 N   0  0  0  0  0  0  0  0  0  0  0  0
   -1.9337    0.8379   -0.4510 C   0  0  0  0  0  0  0  0  0  0  0  0
   -4.1417   -1.2379    0.3867 H   0  0  0  0  0  0  0  0  0  0  0  0
   -4.8915   -1.2651    2.0000 H   0  0  0  0  0  0  0  0  0  0  0  0
   -3.3019   -2.0275    1.7690 H   0  0  0  0  0  0  0  0  0  0  0  0
   -0.5464   -0.7632    2.2089 H   0  0  0  0  0  0  0  0  0  0  0  0
    2.2645   -3.7571    1.3397 H   0  0  0  0  0  0  0  0  0  0  0  0
    2.8660   -2.1308   -1.2851 H   0  0  0  0  0  0  0  0  0  0  0  0
    4.1507   -0.5623    1.1223 H   0  0  0  0  0  0  0  0  0  0  0  0
    4.5082    1.6260    0.8251 H   0  0  0  0  0  0  0  0  0  0  0  0
    3.1032    3.2899    0.3170 H   0  0  0  0  0  0  0  0  0  0  0  0
    0.9387    3.3448   -0.3365 H   0  0  0  0  0  0  0  0  0  0  0  0
    1.0274    0.3334   -0.7531 H   0  0  0  0  0  0  0  0  0  0  0  0
   -0.2390    2.2846   -3.0239 H   0  0  0  0  0  0  0  0  0  0  0  0
   -2.5405    2.2261   -3.9966 H   0  0  0  0  0  0  0  0  0  0  0  0
   -4.3694    1.2259   -2.6167 H   0  0  0  0  0  0  0  0  0  0  0  0
  1  2  1  0
  2  3  2  0
  2  4  2  0
  2  5  1  0
  5  6  1  0
  6  7  2  0
  7  8  1  0
  8  9  2  0
  9 10  1  0
 10 11  1  0
 11 12  2  3
 12 13  1  0
  9 14  1  0
 14 15  2  0
 15 16  1  0
 16 17  2  0
 17 18  1  0
 18 19  2  0
 19 20  1  0
 20 21  2  0
 21 22  1  0
 22 23  2  0
 23 24  1  0
 24 25  2  0
 25  5  1  0
 25 20  1  0
  1 26  1  0
  1 27  1  0
  1 28  1  0
  6 29  1  0
 10 30  1  0
 12 31  1  0
 15 32  1  0
 16 33  1  0
 17 34  1  0
 18 35  1  0
 19 36  1  0
 21 37  1  0
 22 38  1  0
 23 39  1  0
M  END
>  <candidate_id>  (34) 
CAND_3d3d2ca880

>  <source_generator>  (34) 
selfies

>  <parent_mol_id>  (34) 
JAK2_bfebc14fe9

>  <canonical_smiles>  (34) 
CS(=O)(=O)n1cnnc(NN=CF)ncccccc2cccnc21

>  <inchikey>  (34) 
LTSOPMVUCNEXPU-UHFFFAOYSA-N

>  <valid_rdkit>  (34) 
True

>  <unique_flag>  (34) 
True

>  <novel_flag>  (34) 
True

>  <mw>  (34) 
363.378

>  <logp>  (34) 
1.6025

>  <tpsa>  (34) 
115.02

>  <hbd>  (34) 
1

>  <hba>  (34) 
8

>  <rotatable_bonds>  (34) 
3

>  <qed>  (34) 
0.6504

>  <sa_score>  (34) 
3.149

>  <murcko_scaffold>  (34) 
c1ccncnnc[nH]c2ncccc2cc1

>  <max_ring_size>  (34) 
13

>  <has_macrocycle_12_20>  (34) 
True

>  <has_constrained_ring_8_11>  (34) 
False

>  <passes_basic_filters>  (34) 
True

>  <generation_notes>  (34) 
selfies_token_mutation

>  <best_score>  (34) 
nan

>  <qed_admet>  (34) 
0.6504

>  <sa_score_admet>  (34) 
3.149

>  <mw_admet>  (34) 
363.378

>  <logp_admet>  (34) 
1.6025

>  <tpsa_admet>  (34) 
115.02

>  <hbd_admet>  (34) 
1

>  <hba_admet>  (34) 
8

>  <rotatable_bonds_admet>  (34) 
3

>  <lipinski_violations>  (34) 
0

>  <veber_pass>  (34) 
True

>  <admet_score>  (34) 
0.84268

>  <synthesis_score>  (34) 
0.761222

>  <safety_proxy_score>  (34) 
1.0

>  <main_risk>  (34) 
no_major_descriptor_risk

>  <pose_score>  (34) 
0.5

>  <pose_decision>  (34) 
nan

>  <contacts_within_4A>  (34) 
nan

>  <hard_clashes_lt_1_8A>  (34) 
nan

>  <smiles>  (34) 
CS(=O)(=O)n1cnnc(NN=CF)ncccccc2cccnc21

>  <docking_score>  (34) 
nan

>  <diversity_cluster>  (34) 
scaffold_f8e3ff1f

>  <docking_score_scaled>  (34) 
0.0

>  <novelty_score>  (34) 
1.0

>  <final_weighted_score>  (34) 
0.507719

>  <rank>  (34) 
780

>  <decision>  (34) 
await_docking

>  <diverse_rank>  (34) 
531

>  <selection_tier>  (34) 
await_docking

$$$$
CAND_f613c77d25
     RDKit          3D

 48 48  0  0  0  0  0  0  0  0999 V2000
    0.4605    0.7976   -1.6554 C   0  0  0  0  0  0  0  0  0  0  0  0
    1.8953    0.6109   -1.1517 C   0  0  0  0  0  0  0  0  0  0  0  0
    2.8589    1.2532   -2.1624 C   0  0  0  0  0  0  0  0  0  0  0  0
    2.2330   -0.9143   -1.0875 C   0  0  0  0  0  0  0  0  0  0  0  0
    1.8751   -1.6983    0.1891 C   0  0  0  0  0  0  0  0  0  0  0  0
    2.3554   -3.1336    0.0269 C   0  0  0  0  0  0  0  0  0  0  0  0
    3.5013   -3.4537    0.3409 O   0  0  0  0  0  0  0  0  0  0  0  0
    1.4657   -3.9942   -0.5638 N   0  0  0  0  0  0  0  0  0  0  0  0
    1.8364   -5.2984   -0.8045 F   0  0  0  0  0  0  0  0  0  0  0  0
    0.4359   -1.5744    0.6142 C   0  0  0  0  0  0  0  0  0  0  0  0
   -0.5068   -2.2667    0.0494 N   0  0  0  0  0  0  0  0  0  0  0  0
   -1.7341   -2.0623    0.6254 C   0  0  0  0  0  0  0  0  0  0  0  0
   -2.0223   -2.6438    1.8177 N   0  0  0  0  0  0  0  0  0  0  0  0
   -2.6079   -1.2903   -0.0437 C   0  0  0  0  0  0  0  0  0  0  0  0
   -3.9706   -0.8398    0.3990 C   0  0  0  0  0  0  0  0  0  0  0  0
   -4.1400    0.6594    0.3628 C   0  0  0  0  0  0  0  0  0  0  0  0
   -3.3267    1.6100    0.8548 C   0  0  0  0  0  0  0  0  0  0  0  0
   -2.1292    1.3690    1.6285 C   0  0  0  0  0  0  0  0  0  0  0  0
   -0.9646    2.0305    1.5275 C   0  0  0  0  0  0  0  0  0  0  0  0
   -0.6804    3.1029    0.6000 C   0  0  0  0  0  0  0  0  0  0  0  0
    0.5144    3.5208    0.1555 C   0  0  0  0  0  0  0  0  0  0  0  0
    2.0339    2.8385    0.5883 S   0  0  0  0  0  0  0  0  0  0  0  0
    2.1794    2.8761    2.0293 O   0  0  0  0  0  0  0  0  0  0  0  0
    3.0558    3.4548   -0.2303 O   0  0  0  0  0  0  0  0  0  0  0  0
    2.0723    1.1800    0.2183 N   0  0  0  0  0  0  0  0  0  0  0  0
    0.2745    0.1999   -2.5552 H   0  0  0  0  0  0  0  0  0  0  0  0
   -0.2781    0.5090   -0.9071 H   0  0  0  0  0  0  0  0  0  0  0  0
    0.2602    1.8367   -1.9328 H   0  0  0  0  0  0  0  0  0  0  0  0
    3.8890    1.2531   -1.7884 H   0  0  0  0  0  0  0  0  0  0  0  0
    2.8483    0.7085   -3.1140 H   0  0  0  0  0  0  0  0  0  0  0  0
    2.5840    2.2880   -2.3906 H   0  0  0  0  0  0  0  0  0  0  0  0
    3.3203   -1.0256   -1.2173 H   0  0  0  0  0  0  0  0  0  0  0  0
    1.7975   -1.4178   -1.9621 H   0  0  0  0  0  0  0  0  0  0  0  0
    2.4564   -1.2984    1.0312 H   0  0  0  0  0  0  0  0  0  0  0  0
    0.4979   -3.7117   -0.7209 H   0  0  0  0  0  0  0  0  0  0  0  0
    0.2321   -0.8562    1.4320 H   0  0  0  0  0  0  0  0  0  0  0  0
   -2.9496   -2.5929    2.2125 H   0  0  0  0  0  0  0  0  0  0  0  0
   -1.3813   -3.3463    2.1619 H   0  0  0  0  0  0  0  0  0  0  0  0
   -2.2999   -0.9066   -1.0146 H   0  0  0  0  0  0  0  0  0  0  0  0
   -4.6983   -1.2790   -0.2951 H   0  0  0  0  0  0  0  0  0  0  0  0
   -4.2453   -1.1985    1.3954 H   0  0  0  0  0  0  0  0  0  0  0  0
   -5.0350    0.9967   -0.1593 H   0  0  0  0  0  0  0  0  0  0  0  0
   -3.5937    2.6515    0.6856 H   0  0  0  0  0  0  0  0  0  0  0  0
   -2.1799    0.5382    2.3320 H   0  0  0  0  0  0  0  0  0  0  0  0
   -0.1508    1.6974    2.1702 H   0  0  0  0  0  0  0  0  0  0  0  0
   -1.5477    3.6228    0.1965 H   0  0  0  0  0  0  0  0  0  0  0  0
    0.5687    4.3456   -0.5430 H   0  0  0  0  0  0  0  0  0  0  0  0
    2.9397    0.8518    0.6548 H   0  0  0  0  0  0  0  0  0  0  0  0
  1  2  1  0
  2  3  1  0
  2  4  1  0
  4  5  1  0
  5  6  1  0
  6  7  2  0
  6  8  1  0
  8  9  1  0
  5 10  1  0
 10 11  2  3
 11 12  1  0
 12 13  1  0
 12 14  2  3
 14 15  1  0
 15 16  1  0
 16 17  2  3
 17 18  1  0
 18 19  2  3
 19 20  1  0
 20 21  2  3
 21 22  1  0
 22 23  2  0
 22 24  2  0
 22 25  1  0
 25  2  1  0
  1 26  1  0
  1 27  1  0
  1 28  1  0
  3 29  1  0
  3 30  1  0
  3 31  1  0
  4 32  1  0
  4 33  1  0
  5 34  1  0
  8 35  1  0
 10 36  1  0
 13 37  1  0
 13 38  1  0
 14 39  1  0
 15 40  1  0
 15 41  1  0
 16 42  1  0
 17 43  1  0
 18 44  1  0
 19 45  1  0
 20 46  1  0
 21 47  1  0
 25 48  1  0
M  END
>  <candidate_id>  (35) 
CAND_f613c77d25

>  <source_generator>  (35) 
selfies

>  <parent_mol_id>  (35) 
JAK2_42d4d2b240

>  <canonical_smiles>  (35) 
CC1(C)CC(C(=O)NF)C=NC(N)=CCC=CC=CC=CS(=O)(=O)N1

>  <inchikey>  (35) 
LZJBRMSFPREYNM-UHFFFAOYSA-N

>  <valid_rdkit>  (35) 
True

>  <unique_flag>  (35) 
True

>  <novel_flag>  (35) 
True

>  <mw>  (35) 
370.45

>  <logp>  (35) 
1.5921

>  <tpsa>  (35) 
113.65

>  <hbd>  (35) 
3

>  <hba>  (35) 
5

>  <rotatable_bonds>  (35) 
1

>  <qed>  (35) 
0.6083

>  <sa_score>  (35) 
2.939

>  <murcko_scaffold>  (35) 
O=S1(=O)C=CC=CC=CCC=CN=CCCCN1

>  <max_ring_size>  (35) 
16

>  <has_macrocycle_12_20>  (35) 
True

>  <has_constrained_ring_8_11>  (35) 
False

>  <passes_basic_filters>  (35) 
True

>  <generation_notes>  (35) 
selfies_token_mutation

>  <best_score>  (35) 
nan

>  <qed_admet>  (35) 
0.6083

>  <sa_score_admet>  (35) 
2.939

>  <mw_admet>  (35) 
370.45

>  <logp_admet>  (35) 
1.5921

>  <tpsa_admet>  (35) 
113.65

>  <hbd_admet>  (35) 
3

>  <hba_admet>  (35) 
5

>  <rotatable_bonds_admet>  (35) 
1

>  <lipinski_violations>  (35) 
0

>  <veber_pass>  (35) 
True

>  <admet_score>  (35) 
0.823735

>  <synthesis_score>  (35) 
0.784556

>  <safety_proxy_score>  (35) 
1.0

>  <main_risk>  (35) 
no_major_descriptor_risk

>  <pose_score>  (35) 
0.5

>  <pose_decision>  (35) 
nan

>  <contacts_within_4A>  (35) 
nan

>  <hard_clashes_lt_1_8A>  (35) 
nan

>  <smiles>  (35) 
CC1(C)CC(C(=O)NF)C=NC(N)=CCC=CC=CC=CS(=O)(=O)N1

>  <docking_score>  (35) 
nan

>  <diversity_cluster>  (35) 
scaffold_4075440d

>  <docking_score_scaled>  (35) 
0.0

>  <novelty_score>  (35) 
1.0

>  <final_weighted_score>  (35) 
0.50743

>  <rank>  (35) 
789

>  <decision>  (35) 
await_docking

>  <diverse_rank>  (35) 
537

>  <selection_tier>  (35) 
await_docking

$$$$
CAND_2f4037447d
     RDKit          3D

 43 44  0  0  0  0  0  0  0  0999 V2000
    2.5205   -2.8232    0.4359 C   0  0  0  0  0  0  0  0  0  0  0  0
    2.3873   -1.2968    0.5014 C   0  0  1  0  0  0  0  0  0  0  0  0
    3.6175   -0.7257   -0.0629 N   0  0  0  0  0  0  0  0  0  0  0  0
    3.8859    0.4483    0.4005 C   0  0  0  0  0  0  0  0  0  0  0  0
    3.1339    1.0330    1.3385 F   0  0  0  0  0  0  0  0  0  0  0  0
    5.0864    1.1720   -0.1274 C   0  0  0  0  0  0  0  0  0  0  0  0
    5.7126    2.0492    0.5842 N   0  0  0  0  0  0  0  0  0  0  0  0
    1.1406   -0.8768   -0.1732 N   0  0  0  0  0  0  0  0  0  0  0  0
    1.0346   -0.9634   -1.5556 C   0  0  0  0  0  0  0  0  0  0  0  0
    0.2206   -0.5971   -2.4628 N   0  0  0  0  0  0  0  0  0  0  0  0
   -1.0207    0.1217   -2.3151 C   0  0  0  0  0  0  0  0  0  0  0  0
   -2.1770   -0.8315   -2.1520 C   0  0  0  0  0  0  0  0  0  0  0  0
   -2.4830   -1.8663   -1.3478 C   0  0  0  0  0  0  0  0  0  0  0  0
   -1.8463   -2.5387   -0.2332 C   0  0  0  0  0  0  0  0  0  0  0  0
   -1.2008   -2.0818    0.8512 C   0  0  0  0  0  0  0  0  0  0  0  0
   -0.7583   -0.6952    1.0761 C   0  0  0  0  0  0  0  0  0  0  0  0
    0.3108   -0.1263    0.6119 N   0  0  0  0  0  0  0  0  0  0  0  0
   -1.5560    0.1147    1.8485 N   0  0  0  0  0  0  0  0  0  0  0  0
   -2.4360    0.6855    1.0959 C   0  0  0  0  0  0  0  0  0  0  0  0
   -2.7718    2.0257    1.0334 N   0  0  0  0  0  0  0  0  0  0  0  0
   -2.7823    2.8157    2.2536 C   0  0  0  0  0  0  0  0  0  0  0  0
   -2.7487    2.6419   -0.2279 C   0  0  0  0  0  0  0  0  0  0  0  0
   -2.0876    2.2151   -1.3251 C   0  0  0  0  0  0  0  0  0  0  0  0
   -1.1360    1.2115   -1.3817 N   0  0  0  0  0  0  0  0  0  0  0  0
    3.3963   -3.1555    1.0045 H   0  0  0  0  0  0  0  0  0  0  0  0
    1.6373   -3.3147    0.8563 H   0  0  0  0  0  0  0  0  0  0  0  0
    2.6466   -3.1810   -0.5914 H   0  0  0  0  0  0  0  0  0  0  0  0
    2.3175   -1.0625    1.5740 H   0  0  0  0  0  0  0  0  0  0  0  0
    5.3934    0.8987   -1.1494 H   0  0  0  0  0  0  0  0  0  0  0  0
    6.5014    2.4303    0.0486 H   0  0  0  0  0  0  0  0  0  0  0  0
    1.9115   -1.4993   -1.9580 H   0  0  0  0  0  0  0  0  0  0  0  0
   -1.1622    0.5803   -3.3036 H   0  0  0  0  0  0  0  0  0  0  0  0
   -2.9406   -0.6117   -2.9006 H   0  0  0  0  0  0  0  0  0  0  0  0
   -3.4389   -2.3460   -1.5805 H   0  0  0  0  0  0  0  0  0  0  0  0
   -2.0427   -3.6128   -0.2423 H   0  0  0  0  0  0  0  0  0  0  0  0
   -0.8727   -2.7706    1.6211 H   0  0  0  0  0  0  0  0  0  0  0  0
   -2.8143    0.1741    0.1994 H   0  0  0  0  0  0  0  0  0  0  0  0
   -3.1794    2.2334    3.0923 H   0  0  0  0  0  0  0  0  0  0  0  0
   -1.7675    3.1411    2.5060 H   0  0  0  0  0  0  0  0  0  0  0  0
   -3.4138    3.7041    2.1439 H   0  0  0  0  0  0  0  0  0  0  0  0
   -3.3840    3.5215   -0.2784 H   0  0  0  0  0  0  0  0  0  0  0  0
   -2.2500    2.6949   -2.2871 H   0  0  0  0  0  0  0  0  0  0  0  0
   -0.5845    1.0642   -0.5353 H   0  0  0  0  0  0  0  0  0  0  0  0
  1  2  1  0
  2  3  1  0
  3  4  2  3
  4  5  1  0
  4  6  1  0
  6  7  2  3
  2  8  1  0
  8  9  1  0
  9 10  2  3
 10 11  1  0
 11 12  1  0
 12 13  2  3
 13 14  1  0
 14 15  2  3
 15 16  1  0
 16 17  2  3
 16 18  1  0
 18 19  2  3
 19 20  1  0
 20 21  1  0
 20 22  1  0
 22 23  2  3
 23 24  1  0
 17  8  1  0
 24 11  1  0
  1 25  1  0
  1 26  1  0
  1 27  1  0
  2 28  1  1
  6 29  1  0
  7 30  1  0
  9 31  1  0
 11 32  1  0
 12 33  1  0
 13 34  1  0
 14 35  1  0
 15 36  1  0
 19 37  1  0
 21 38  1  0
 21 39  1  0
 21 40  1  0
 22 41  1  0
 23 42  1  0
 24 43  1  0
M  END
>  <candidate_id>  (36) 
CAND_2f4037447d

>  <source_generator>  (36) 
selfies

>  <parent_mol_id>  (36) 
JAK2_7199fc7e1a

>  <canonical_smiles>  (36) 
C[C@@H](N=C(F)C=N)N1C=NC2C=CC=CC(=N1)N=CN(C)C=CN2

>  <inchikey>  (36) 
VNGVKBPDPYPTQF-NBFOIZRFSA-N

>  <valid_rdkit>  (36) 
True

>  <unique_flag>  (36) 
True

>  <novel_flag>  (36) 
True

>  <mw>  (36) 
330.371

>  <logp>  (36) 
1.4804

>  <tpsa>  (36) 
91.8

>  <hbd>  (36) 
2

>  <hba>  (36) 
8

>  <rotatable_bonds>  (36) 
3

>  <qed>  (36) 
0.7679

>  <sa_score>  (36) 
3.825

>  <murcko_scaffold>  (36) 
C1=CC2=NNC=NC(C=C1)NC=CNC=N2

>  <max_ring_size>  (36) 
12

>  <has_macrocycle_12_20>  (36) 
True

>  <has_constrained_ring_8_11>  (36) 
False

>  <passes_basic_filters>  (36) 
True

>  <generation_notes>  (36) 
selfies_token_mutation

>  <best_score>  (36) 
nan

>  <qed_admet>  (36) 
0.7679

>  <sa_score_admet>  (36) 
3.825

>  <mw_admet>  (36) 
330.371

>  <logp_admet>  (36) 
1.4804

>  <tpsa_admet>  (36) 
91.8

>  <hbd_admet>  (36) 
2

>  <hba_admet>  (36) 
8

>  <rotatable_bonds_admet>  (36) 
3

>  <lipinski_violations>  (36) 
0

>  <veber_pass>  (36) 
True

>  <admet_score>  (36) 
0.895555

>  <synthesis_score>  (36) 
0.686111

>  <safety_proxy_score>  (36) 
1.0

>  <main_risk>  (36) 
no_major_descriptor_risk

>  <pose_score>  (36) 
0.5

>  <pose_decision>  (36) 
nan

>  <contacts_within_4A>  (36) 
nan

>  <hard_clashes_lt_1_8A>  (36) 
nan

>  <smiles>  (36) 
C[C@@H](N=C(F)C=N)N1C=NC2C=CC=CC(=N1)N=CN(C)C=CN2

>  <docking_score>  (36) 
nan

>  <diversity_cluster>  (36) 
scaffold_5cd0ef2b

>  <docking_score_scaled>  (36) 
0.0

>  <novelty_score>  (36) 
1.0

>  <final_weighted_score>  (36) 
0.507028

>  <rank>  (36) 
798

>  <decision>  (36) 
await_docking

>  <diverse_rank>  (36) 
543

>  <selection_tier>  (36) 
await_docking

$$$$
CAND_445bda5e64
     RDKit          3D

 42 44  0  0  0  0  0  0  0  0999 V2000
    0.4086    3.4468    0.2760 C   0  0  0  0  0  0  0  0  0  0  0  0
   -0.6393    3.9505    0.8672 C   0  0  0  0  0  0  0  0  0  0  0  0
   -1.7668    3.0861    1.1342 C   0  0  0  0  0  0  0  0  0  0  0  0
   -1.6795    2.0521    1.9824 C   0  0  0  0  0  0  0  0  0  0  0  0
   -2.6581    0.9587    1.8540 C   0  0  0  0  0  0  0  0  0  0  0  0
   -2.4524   -0.1743    2.4460 N   0  0  0  0  0  0  0  0  0  0  0  0
   -3.2233   -1.1911    1.9529 C   0  0  0  0  0  0  0  0  0  0  0  0
   -2.9246   -1.9012    0.8493 C   0  0  0  0  0  0  0  0  0  0  0  0
   -1.7520   -1.7550   -0.0025 C   0  0  0  0  0  0  0  0  0  0  0  0
   -1.6821   -2.2383   -1.2645 C   0  0  0  0  0  0  0  0  0  0  0  0
   -0.4714   -2.0403   -2.0483 C   0  0  0  0  0  0  0  0  0  0  0  0
   -0.0133   -0.7916   -2.2270 C   0  0  0  0  0  0  0  0  0  0  0  0
    1.2984   -0.3273   -2.2447 N   0  0  0  0  0  0  0  0  0  0  0  0
    2.4533   -1.1982   -2.0084 C   0  0  0  0  0  0  0  0  0  0  0  0
    3.1940   -0.8932   -0.7094 C   0  0  0  0  0  0  0  0  0  0  0  0
    2.3570   -0.5636    0.5352 C   0  0  0  0  0  0  0  0  0  0  0  0
    1.5826   -1.7085    0.9827 N   0  0  0  0  0  0  0  0  0  0  0  0
    0.3232   -1.9039    0.9637 C   0  0  0  0  0  0  0  0  0  0  0  0
   -0.6408   -1.0474    0.5426 O   0  0  0  0  0  0  0  0  0  0  0  0
    1.8197    0.7712    0.6642 N   0  0  0  0  0  0  0  0  0  0  0  0
    1.1439    1.4419   -0.4409 C   0  0  0  0  0  0  0  0  0  0  0  0
    1.5528    1.1017   -1.9208 C   0  0  0  0  0  0  0  0  0  0  0  0
    1.3009    2.9155   -0.2730 N   0  0  0  0  0  0  0  0  0  0  0  0
   -0.7874    5.0237    0.8799 H   0  0  0  0  0  0  0  0  0  0  0  0
   -2.6361    3.2357    0.4982 H   0  0  0  0  0  0  0  0  0  0  0  0
   -0.8115    1.8550    2.6020 H   0  0  0  0  0  0  0  0  0  0  0  0
   -3.4782    1.1142    1.1269 H   0  0  0  0  0  0  0  0  0  0  0  0
   -4.1269   -1.4196    2.5145 H   0  0  0  0  0  0  0  0  0  0  0  0
   -3.6372   -2.6630    0.5394 H   0  0  0  0  0  0  0  0  0  0  0  0
   -2.4872   -2.8053   -1.7189 H   0  0  0  0  0  0  0  0  0  0  0  0
    0.1604   -2.9149   -2.1533 H   0  0  0  0  0  0  0  0  0  0  0  0
   -0.7177    0.0317   -2.1014 H   0  0  0  0  0  0  0  0  0  0  0  0
    2.1759   -2.2567   -2.0133 H   0  0  0  0  0  0  0  0  0  0  0  0
    3.1508   -1.0807   -2.8474 H   0  0  0  0  0  0  0  0  0  0  0  0
    3.8952   -0.0655   -0.8848 H   0  0  0  0  0  0  0  0  0  0  0  0
    3.8369   -1.7564   -0.4871 H   0  0  0  0  0  0  0  0  0  0  0  0
    3.1340   -0.5219    1.3126 H   0  0  0  0  0  0  0  0  0  0  0  0
   -0.0876   -2.8666    1.3098 H   0  0  0  0  0  0  0  0  0  0  0  0
    1.2420    0.8162    1.4958 H   0  0  0  0  0  0  0  0  0  0  0  0
    0.0806    1.1858   -0.3607 H   0  0  0  0  0  0  0  0  0  0  0  0
    2.5995    1.3721   -2.1081 H   0  0  0  0  0  0  0  0  0  0  0  0
    0.9636    1.7255   -2.6067 H   0  0  0  0  0  0  0  0  0  0  0  0
  1  2  2  0
  2  3  1  0
  3  4  2  3
  4  5  1  0
  5  6  2  3
  6  7  1  0
  7  8  2  3
  8  9  1  0
  9 10  2  3
 10 11  1  0
 11 12  2  3
 12 13  1  0
 13 14  1  0
 14 15  1  0
 15 16  1  0
 16 17  1  0
 17 18  2  3
 18 19  1  0
 16 20  1  0
 20 21  1  0
 21 22  1  0
 21 23  1  0
 23  1  2  0
 19  9  1  0
 22 13  1  0
  2 24  1  0
  3 25  1  0
  4 26  1  0
  5 27  1  0
  7 28  1  0
  8 29  1  0
 10 30  1  0
 11 31  1  0
 12 32  1  0
 14 33  1  0
 14 34  1  0
 15 35  1  0
 15 36  1  0
 16 37  1  0
 18 38  1  0
 20 39  1  0
 21 40  1  0
 22 41  1  0
 22 42  1  0
M  END
>  <candidate_id>  (37) 
CAND_445bda5e64

>  <source_generator>  (37) 
selfies

>  <parent_mol_id>  (37) 
JAK2_52b2cf11d9

>  <canonical_smiles>  (37) 
C1=CC=CC=NC=CC2=CC=CN3CCC(N=CO2)NC(C3)N=1

>  <inchikey>  (37) 
JIVGFRGYLFAQLW-UHFFFAOYSA-N

>  <valid_rdkit>  (37) 
True

>  <unique_flag>  (37) 
True

>  <novel_flag>  (37) 
True

>  <mw>  (37) 
309.373

>  <logp>  (37) 
1.7702

>  <tpsa>  (37) 
61.58

>  <hbd>  (37) 
1

>  <hba>  (37) 
6

>  <rotatable_bonds>  (37) 
0

>  <qed>  (37) 
0.7416

>  <sa_score>  (37) 
3.7

>  <murcko_scaffold>  (37) 
C1=CC=CC=NC=CC2=CC=CN3CCC(N=CO2)NC(C3)N=1

>  <max_ring_size>  (37) 
16

>  <has_macrocycle_12_20>  (37) 
True

>  <has_constrained_ring_8_11>  (37) 
False

>  <passes_basic_filters>  (37) 
True

>  <generation_notes>  (37) 
selfies_token_mutation

>  <best_score>  (37) 
nan

>  <qed_admet>  (37) 
0.7416

>  <sa_score_admet>  (37) 
3.7

>  <mw_admet>  (37) 
309.373

>  <logp_admet>  (37) 
1.7702

>  <tpsa_admet>  (37) 
61.58

>  <hbd_admet>  (37) 
1

>  <hba_admet>  (37) 
6

>  <rotatable_bonds_admet>  (37) 
0

>  <lipinski_violations>  (37) 
0

>  <veber_pass>  (37) 
True

>  <admet_score>  (37) 
0.88372

>  <synthesis_score>  (37) 
0.7

>  <safety_proxy_score>  (37) 
1.0

>  <main_risk>  (37) 
no_major_descriptor_risk

>  <pose_score>  (37) 
0.5

>  <pose_decision>  (37) 
nan

>  <contacts_within_4A>  (37) 
nan

>  <hard_clashes_lt_1_8A>  (37) 
nan

>  <smiles>  (37) 
C1=CC=CC=NC=CC2=CC=CN3CCC(N=CO2)NC(C3)N=1

>  <docking_score>  (37) 
nan

>  <diversity_cluster>  (37) 
scaffold_445bda5e

>  <docking_score_scaled>  (37) 
0.0

>  <novelty_score>  (37) 
1.0

>  <final_weighted_score>  (37) 
0.506744

>  <rank>  (37) 
806

>  <decision>  (37) 
await_docking

>  <diverse_rank>  (37) 
548

>  <selection_tier>  (37) 
await_docking

$$$$
CAND_cc70ad3aa7
     RDKit          3D

 40 43  0  0  0  0  0  0  0  0999 V2000
    4.2864   -0.4760    1.7724 N   0  0  0  0  0  0  0  0  0  0  0  0
    3.0937   -1.2872    1.9827 C   0  0  0  0  0  0  0  0  0  0  0  0
    3.3908   -2.9858    1.2709 S   0  0  0  0  0  0  0  0  0  0  0  0
    2.0547   -2.8801    0.3033 N   0  0  0  0  0  0  0  0  0  0  0  0
    1.5709   -3.8901   -0.4904 C   0  0  0  0  0  0  0  0  0  0  0  0
    0.4354   -3.7466   -1.1960 C   0  0  0  0  0  0  0  0  0  0  0  0
   -0.2286   -2.4144   -1.0361 C   0  0  0  0  0  0  0  0  0  0  0  0
    0.2113   -1.4424   -0.2887 N   0  0  0  0  0  0  0  0  0  0  0  0
    1.3661   -1.6853    0.4045 C   0  0  0  0  0  0  0  0  0  0  0  0
    1.8801   -0.7795    1.2600 C   0  0  0  0  0  0  0  0  0  0  0  0
    1.2607    0.5092    1.6122 C   0  0  0  0  0  0  0  0  0  0  0  0
    0.5487    1.2763    0.6990 C   0  0  0  0  0  0  0  0  0  0  0  0
   -0.1435    2.3701    1.1697 C   0  0  0  0  0  0  0  0  0  0  0  0
   -0.0690    2.7260    2.4602 N   0  0  0  0  0  0  0  0  0  0  0  0
    0.7032    1.9724    3.2567 C   0  0  0  0  0  0  0  0  0  0  0  0
    1.3868    0.8777    2.8996 N   0  0  0  0  0  0  0  0  0  0  0  0
   -0.9665    3.1551    0.4067 N   0  0  0  0  0  0  0  0  0  0  0  0
   -0.9785    3.2911   -1.0281 C   0  0  0  0  0  0  0  0  0  0  0  0
   -1.6792    2.1477   -1.6976 C   0  0  0  0  0  0  0  0  0  0  0  0
   -2.9927    1.8634   -1.6306 C   0  0  0  0  0  0  0  0  0  0  0  0
   -3.6246    0.7598   -2.3410 C   0  0  0  0  0  0  0  0  0  0  0  0
   -3.2422   -0.5298   -2.3580 C   0  0  0  0  0  0  0  0  0  0  0  0
   -3.9388   -1.3986   -3.1243 F   0  0  0  0  0  0  0  0  0  0  0  0
   -2.1385   -1.0643   -1.6040 C   0  0  0  0  0  0  0  0  0  0  0  0
   -1.4631   -2.1991   -1.8477 C   0  0  0  0  0  0  0  0  0  0  0  0
    4.0845    0.4665    2.1022 H   0  0  0  0  0  0  0  0  0  0  0  0
    4.4549   -0.4160    0.7715 H   0  0  0  0  0  0  0  0  0  0  0  0
    2.9002   -1.4085    3.0535 H   0  0  0  0  0  0  0  0  0  0  0  0
    2.1535   -4.8051   -0.5075 H   0  0  0  0  0  0  0  0  0  0  0  0
    0.0169   -4.5143   -1.8284 H   0  0  0  0  0  0  0  0  0  0  0  0
    0.4882    0.9874   -0.3397 H   0  0  0  0  0  0  0  0  0  0  0  0
    0.7742    2.2773    4.2951 H   0  0  0  0  0  0  0  0  0  0  0  0
   -1.4106    3.8838    0.9519 H   0  0  0  0  0  0  0  0  0  0  0  0
   -1.4908    4.2233   -1.2946 H   0  0  0  0  0  0  0  0  0  0  0  0
    0.0426    3.3864   -1.4163 H   0  0  0  0  0  0  0  0  0  0  0  0
   -1.0333    1.5286   -2.3173 H   0  0  0  0  0  0  0  0  0  0  0  0
   -3.6573    2.4999   -1.0497 H   0  0  0  0  0  0  0  0  0  0  0  0
   -4.5106    1.0301   -2.9116 H   0  0  0  0  0  0  0  0  0  0  0  0
   -1.8190   -0.4265   -0.7814 H   0  0  0  0  0  0  0  0  0  0  0  0
   -1.7169   -2.8827   -2.6461 H   0  0  0  0  0  0  0  0  0  0  0  0
  1  2  1  0
  2  3  1  0
  3  4  1  0
  4  5  1  0
  5  6  2  0
  6  7  1  0
  7  8  2  0
  8  9  1  0
  9 10  2  0
 10 11  1  0
 11 12  1  0
 12 13  2  0
 13 14  1  0
 14 15  2  0
 15 16  1  0
 13 17  1  0
 17 18  1  0
 18 19  1  0
 19 20  2  3
 20 21  1  0
 21 22  2  3
 22 23  1  0
 22 24  1  0
 24 25  2  3
 10  2  1  0
 16 11  2  0
  9  4  1  0
 25  7  1  0
  1 26  1  0
  1 27  1  0
  2 28  1  0
  5 29  1  0
  6 30  1  0
 12 31  1  0
 15 32  1  0
 17 33  1  0
 18 34  1  0
 18 35  1  0
 19 36  1  0
 20 37  1  0
 21 38  1  0
 24 39  1  0
 25 40  1  0
M  END
>  <candidate_id>  (38) 
CAND_cc70ad3aa7

>  <source_generator>  (38) 
selfies

>  <parent_mol_id>  (38) 
JAK2_02db94a4e8

>  <canonical_smiles>  (38) 
NC1SN2C=CC3=NC2=C1c1cc(ncn1)NCC=CC=C(F)C=C3

>  <inchikey>  (38) 
DZPPITDNTKRNJR-UHFFFAOYSA-N

>  <valid_rdkit>  (38) 
True

>  <unique_flag>  (38) 
True

>  <novel_flag>  (38) 
True

>  <mw>  (38) 
354.414

>  <logp>  (38) 
2.7534

>  <tpsa>  (38) 
79.43

>  <hbd>  (38) 
2

>  <hba>  (38) 
7

>  <rotatable_bonds>  (38) 
0

>  <qed>  (38) 
0.6976

>  <sa_score>  (38) 
3.475

>  <murcko_scaffold>  (38) 
C1=CC=CC2=NC3=C(CSN3C=C2)c2cc(ncn2)NCC=C1

>  <max_ring_size>  (38) 
15

>  <has_macrocycle_12_20>  (38) 
True

>  <has_constrained_ring_8_11>  (38) 
False

>  <passes_basic_filters>  (38) 
True

>  <generation_notes>  (38) 
selfies_token_mutation

>  <best_score>  (38) 
nan

>  <qed_admet>  (38) 
0.6976

>  <sa_score_admet>  (38) 
3.475

>  <mw_admet>  (38) 
354.414

>  <logp_admet>  (38) 
2.7534

>  <tpsa_admet>  (38) 
79.43

>  <hbd_admet>  (38) 
2

>  <hba_admet>  (38) 
7

>  <rotatable_bonds_admet>  (38) 
0

>  <lipinski_violations>  (38) 
0

>  <veber_pass>  (38) 
True

>  <admet_score>  (38) 
0.86392

>  <synthesis_score>  (38) 
0.725

>  <safety_proxy_score>  (38) 
1.0

>  <main_risk>  (38) 
no_major_descriptor_risk

>  <pose_score>  (38) 
0.5

>  <pose_decision>  (38) 
nan

>  <contacts_within_4A>  (38) 
nan

>  <hard_clashes_lt_1_8A>  (38) 
nan

>  <smiles>  (38) 
NC1SN2C=CC3=NC2=C1c1cc(ncn1)NCC=CC=C(F)C=C3

>  <docking_score>  (38) 
nan

>  <diversity_cluster>  (38) 
scaffold_91eb6050

>  <docking_score_scaled>  (38) 
0.0

>  <novelty_score>  (38) 
1.0

>  <final_weighted_score>  (38) 
0.506534

>  <rank>  (38) 
814

>  <decision>  (38) 
await_docking

>  <diverse_rank>  (38) 
552

>  <selection_tier>  (38) 
await_docking

$$$$
CAND_2333b40a1e
     RDKit          3D

 41 43  0  0  0  0  0  0  0  0999 V2000
    4.3475   -1.0562    2.9708 N   0  0  0  0  0  0  0  0  0  0  0  0
    4.0316   -0.4862    1.7672 C   0  0  0  0  0  0  0  0  0  0  0  0
    4.7893    0.3386    1.2663 O   0  0  0  0  0  0  0  0  0  0  0  0
    2.7510   -0.8619    1.1174 C   0  0  0  0  0  0  0  0  0  0  0  0
    2.0726   -2.0231    1.4515 C   0  0  0  0  0  0  0  0  0  0  0  0
    0.8419   -2.3534    0.9810 N   0  0  0  0  0  0  0  0  0  0  0  0
    0.2806   -1.5524    0.0565 C   0  0  0  0  0  0  0  0  0  0  0  0
    0.9735   -0.4773   -0.4562 C   0  0  0  0  0  0  0  0  0  0  0  0
    2.1608   -0.0443    0.1472 C   0  0  0  0  0  0  0  0  0  0  0  0
    2.5634    1.2886   -0.0869 N   0  0  0  0  0  0  0  0  0  0  0  0
    1.8512    2.3351    0.6759 C   0  0  0  0  0  0  0  0  0  0  0  0
    0.3581    2.3566    0.4291 C   0  0  0  0  0  0  0  0  0  0  0  0
   -0.1048    3.1599   -0.5555 F   0  0  0  0  0  0  0  0  0  0  0  0
   -0.5154    1.6383    1.1580 C   0  0  0  0  0  0  0  0  0  0  0  0
   -1.9394    1.4929    0.9677 C   0  0  0  0  0  0  0  0  0  0  0  0
   -2.6068    0.8702   -0.0215 C   0  0  0  0  0  0  0  0  0  0  0  0
   -2.1633    0.2098   -1.2884 C   0  0  0  0  0  0  0  0  0  0  0  0
   -2.9336    0.7436   -2.5130 C   0  0  0  0  0  0  0  0  0  0  0  0
   -1.4987    1.0860   -2.3501 C   0  0  0  0  0  0  0  0  0  0  0  0
   -1.8971   -1.3271   -1.2968 C   0  0  2  0  0  0  0  0  0  0  0  0
   -3.2416   -2.1213   -1.3020 C   0  0  0  0  0  0  0  0  0  0  0  0
   -3.9481   -1.9354   -2.4405 F   0  0  0  0  0  0  0  0  0  0  0  0
   -3.0055   -3.4567   -1.2078 F   0  0  0  0  0  0  0  0  0  0  0  0
   -4.0430   -1.7933   -0.2619 F   0  0  0  0  0  0  0  0  0  0  0  0
   -1.0235   -1.8223   -0.2169 N   0  0  0  0  0  0  0  0  0  0  0  0
    3.7540   -1.6747    3.5029 H   0  0  0  0  0  0  0  0  0  0  0  0
    5.2278   -0.7782    3.3882 H   0  0  0  0  0  0  0  0  0  0  0  0
    2.4756   -2.7480    2.1502 H   0  0  0  0  0  0  0  0  0  0  0  0
    0.5405    0.1474   -1.2213 H   0  0  0  0  0  0  0  0  0  0  0  0
    3.5826    1.3903   -0.0159 H   0  0  0  0  0  0  0  0  0  0  0  0
    2.0622    2.2135    1.7460 H   0  0  0  0  0  0  0  0  0  0  0  0
    2.2630    3.3087    0.3879 H   0  0  0  0  0  0  0  0  0  0  0  0
   -0.1345    1.0535    1.9945 H   0  0  0  0  0  0  0  0  0  0  0  0
   -2.5270    1.8657    1.8071 H   0  0  0  0  0  0  0  0  0  0  0  0
   -3.6904    0.8414    0.1160 H   0  0  0  0  0  0  0  0  0  0  0  0
   -3.1844    0.0856   -3.3381 H   0  0  0  0  0  0  0  0  0  0  0  0
   -3.6566    1.5432   -2.3796 H   0  0  0  0  0  0  0  0  0  0  0  0
   -1.2751    2.1238   -2.1377 H   0  0  0  0  0  0  0  0  0  0  0  0
   -0.7959    0.6382   -3.0447 H   0  0  0  0  0  0  0  0  0  0  0  0
   -1.3972   -1.5794   -2.2415 H   0  0  0  0  0  0  0  0  0  0  0  0
   -1.3450   -2.6396    0.2951 H   0  0  0  0  0  0  0  0  0  0  0  0
  1  2  1  0
  2  3  2  0
  2  4  1  0
  4  5  2  0
  5  6  1  0
  6  7  2  0
  7  8  1  0
  8  9  2  0
  9 10  1  0
 10 11  1  0
 11 12  1  0
 12 13  1  0
 12 14  2  3
 14 15  1  0
 15 16  2  3
 16 17  1  0
 17 18  1  0
 18 19  1  0
 17 20  1  0
 20 21  1  0
 21 22  1  0
 21 23  1  0
 21 24  1  0
 20 25  1  0
  9  4  1  0
 19 17  1  0
 25  7  1  0
  1 26  1  0
  1 27  1  0
  5 28  1  0
  8 29  1  0
 10 30  1  0
 11 31  1  0
 11 32  1  0
 14 33  1  0
 15 34  1  0
 16 35  1  0
 18 36  1  0
 18 37  1  0
 19 38  1  0
 19 39  1  0
 20 40  1  6
 25 41  1  0
M  END
>  <candidate_id>  (39) 
CAND_2333b40a1e

>  <source_generator>  (39) 
selfies

>  <parent_mol_id>  (39) 
JAK2_f6c9a7f30d

>  <canonical_smiles>  (39) 
NC(=O)c1cnc2cc1NCC(F)=CC=CC1(CC1)[C@H](C(F)(F)F)N2

>  <inchikey>  (39) 
XCKDHJUMXCTNGR-CQSZACIVSA-N

>  <valid_rdkit>  (39) 
True

>  <unique_flag>  (39) 
True

>  <novel_flag>  (39) 
True

>  <mw>  (39) 
356.323

>  <logp>  (39) 
3.1386

>  <tpsa>  (39) 
80.04

>  <hbd>  (39) 
3

>  <hba>  (39) 
4

>  <rotatable_bonds>  (39) 
1

>  <qed>  (39) 
0.6756

>  <sa_score>  (39) 
3.36

>  <murcko_scaffold>  (39) 
C1=CCNc2ccnc(c2)NCC2(C=C1)CC2

>  <max_ring_size>  (39) 
12

>  <has_macrocycle_12_20>  (39) 
True

>  <has_constrained_ring_8_11>  (39) 
False

>  <passes_basic_filters>  (39) 
True

>  <generation_notes>  (39) 
selfies_token_mutation

>  <best_score>  (39) 
nan

>  <qed_admet>  (39) 
0.6756

>  <sa_score_admet>  (39) 
3.36

>  <mw_admet>  (39) 
356.323

>  <logp_admet>  (39) 
3.1386

>  <tpsa_admet>  (39) 
80.04

>  <hbd_admet>  (39) 
3

>  <hba_admet>  (39) 
4

>  <rotatable_bonds_admet>  (39) 
1

>  <lipinski_violations>  (39) 
0

>  <veber_pass>  (39) 
True

>  <admet_score>  (39) 
0.85402

>  <synthesis_score>  (39) 
0.737778

>  <safety_proxy_score>  (39) 
1.0

>  <main_risk>  (39) 
no_major_descriptor_risk

>  <pose_score>  (39) 
0.5

>  <pose_decision>  (39) 
nan

>  <contacts_within_4A>  (39) 
nan

>  <hard_clashes_lt_1_8A>  (39) 
nan

>  <smiles>  (39) 
NC(=O)c1cnc2cc1NCC(F)=CC=CC1(CC1)[C@H](C(F)(F)F)N2

>  <docking_score>  (39) 
nan

>  <diversity_cluster>  (39) 
scaffold_c23733fd

>  <docking_score_scaled>  (39) 
0.0

>  <novelty_score>  (39) 
1.0

>  <final_weighted_score>  (39) 
0.506471

>  <rank>  (39) 
819

>  <decision>  (39) 
await_docking

>  <diverse_rank>  (39) 
557

>  <selection_tier>  (39) 
await_docking

$$$$
CAND_29cf1d90ca
     RDKit          3D

 45 47  0  0  0  0  0  0  0  0999 V2000
    3.4248    1.6124    0.4276 C   0  0  0  0  0  0  0  0  0  0  0  0
    2.0393    1.6346    1.0757 C   0  0  1  0  0  0  0  0  0  0  0  0
    1.1029    2.4854    0.2298 C   0  0  0  0  0  0  0  0  0  0  0  0
    0.1658    2.0623   -0.6453 C   0  0  0  0  0  0  0  0  0  0  0  0
   -0.6894    3.0401   -1.2918 C   0  0  0  0  0  0  0  0  0  0  0  0
   -1.5442    2.8838   -2.3130 C   0  0  0  0  0  0  0  0  0  0  0  0
   -1.8368    1.6449   -3.0763 C   0  0  0  0  0  0  0  0  0  0  0  0
   -1.9251    0.5022   -2.2182 N   0  0  0  0  0  0  0  0  0  0  0  0
   -0.9114    0.0844   -1.3987 C   0  0  0  0  0  0  0  0  0  0  0  0
    0.0291    0.7238   -0.8093 N   0  0  0  0  0  0  0  0  0  0  0  0
   -0.8428   -1.4135   -1.1014 C   0  0  0  0  0  0  0  0  0  0  0  0
   -1.7699   -2.0833   -0.4999 N   0  0  0  0  0  0  0  0  0  0  0  0
   -2.8395   -1.3835    0.1881 C   0  0  0  0  0  0  0  0  0  0  0  0
   -2.9308   -1.9636    1.5729 C   0  0  0  0  0  0  0  0  0  0  0  0
   -2.0202   -1.8276    2.5560 C   0  0  0  0  0  0  0  0  0  0  0  0
   -0.7268   -1.0576    2.4709 C   0  0  0  0  0  0  0  0  0  0  0  0
    0.4592   -1.9594    2.7484 C   0  0  0  0  0  0  0  0  0  0  0  0
    1.6795   -1.8702    2.3374 N   0  0  0  0  0  0  0  0  0  0  0  0
    2.1192   -0.8302    1.3927 C   0  0  0  0  0  0  0  0  0  0  0  0
    2.2390   -1.4459   -0.0408 C   0  0  0  0  0  0  0  0  0  0  0  0
    1.2359   -2.4188   -0.3745 O   0  0  0  0  0  0  0  0  0  0  0  0
    0.4425   -2.1006   -1.5137 C   0  0  0  0  0  0  0  0  0  0  0  0
    1.4127    0.4035    1.4292 O   0  0  0  0  0  0  0  0  0  0  0  0
    4.1591    1.1032    1.0582 H   0  0  0  0  0  0  0  0  0  0  0  0
    3.7931    2.6327    0.2675 H   0  0  0  0  0  0  0  0  0  0  0  0
    3.4195    1.1149   -0.5454 H   0  0  0  0  0  0  0  0  0  0  0  0
    2.1478    2.1644    2.0307 H   0  0  0  0  0  0  0  0  0  0  0  0
    1.2339    3.5533    0.3865 H   0  0  0  0  0  0  0  0  0  0  0  0
   -0.6088    4.0504   -0.8904 H   0  0  0  0  0  0  0  0  0  0  0  0
   -2.0774    3.7681   -2.6557 H   0  0  0  0  0  0  0  0  0  0  0  0
   -2.7986    1.7657   -3.5873 H   0  0  0  0  0  0  0  0  0  0  0  0
   -1.0813    1.4924   -3.8551 H   0  0  0  0  0  0  0  0  0  0  0  0
   -2.6335   -0.1817   -2.4595 H   0  0  0  0  0  0  0  0  0  0  0  0
   -3.7840   -1.5574   -0.3390 H   0  0  0  0  0  0  0  0  0  0  0  0
   -2.7136   -0.2992    0.2705 H   0  0  0  0  0  0  0  0  0  0  0  0
   -3.8217   -2.5541    1.7733 H   0  0  0  0  0  0  0  0  0  0  0  0
   -2.2275   -2.3076    3.5106 H   0  0  0  0  0  0  0  0  0  0  0  0
   -0.7371   -0.2863    3.2489 H   0  0  0  0  0  0  0  0  0  0  0  0
   -0.6335   -0.5645    1.5100 H   0  0  0  0  0  0  0  0  0  0  0  0
    0.2711   -2.7685    3.4764 H   0  0  0  0  0  0  0  0  0  0  0  0
    3.1374   -0.6041    1.7236 H   0  0  0  0  0  0  0  0  0  0  0  0
    2.3009   -0.6708   -0.8068 H   0  0  0  0  0  0  0  0  0  0  0  0
    3.1835   -2.0018   -0.0759 H   0  0  0  0  0  0  0  0  0  0  0  0
    0.1640   -3.0502   -1.9841 H   0  0  0  0  0  0  0  0  0  0  0  0
    0.9939   -1.5220   -2.2620 H   0  0  0  0  0  0  0  0  0  0  0  0
  1  2  1  0
  2  3  1  0
  3  4  2  3
  4  5  1  0
  5  6  2  0
  6  7  1  0
  7  8  1  0
  8  9  1  0
  9 10  2  0
  9 11  1  0
 11 12  2  3
 12 13  1  0
 13 14  1  0
 14 15  2  3
 15 16  1  0
 16 17  1  0
 17 18  2  3
 18 19  1  0
 19 20  1  0
 20 21  1  0
 21 22  1  0
 19 23  1  0
 23  2  1  0
 10  4  1  0
 22 11  1  0
  1 24  1  0
  1 25  1  0
  1 26  1  0
  2 27  1  1
  3 28  1  0
  5 29  1  0
  6 30  1  0
  7 31  1  0
  7 32  1  0
  8 33  1  0
 13 34  1  0
 13 35  1  0
 14 36  1  0
 15 37  1  0
 16 38  1  0
 16 39  1  0
 17 40  1  0
 19 41  1  0
 20 42  1  0
 20 43  1  0
 22 44  1  0
 22 45  1  0
M  END
>  <candidate_id>  (40) 
CAND_29cf1d90ca

>  <source_generator>  (40) 
selfies

>  <parent_mol_id>  (40) 
JAK2_41f05c4fc6

>  <canonical_smiles>  (40) 
C[C@H]1C=C2C=CCNC(=N2)C2=NCC=CCC=NC(COC2)O1

>  <inchikey>  (40) 
VXYSXWDFRPVMBM-KNVGNIICSA-N

>  <valid_rdkit>  (40) 
True

>  <unique_flag>  (40) 
True

>  <novel_flag>  (40) 
True

>  <mw>  (40) 
314.389

>  <logp>  (40) 
1.6613

>  <tpsa>  (40) 
67.57

>  <hbd>  (40) 
1

>  <hba>  (40) 
6

>  <rotatable_bonds>  (40) 
0

>  <qed>  (40) 
0.6915

>  <sa_score>  (40) 
3.45

>  <murcko_scaffold>  (40) 
C1=CCN=C2COCC(N=CC1)OCC=C1C=CCNC2=N1

>  <max_ring_size>  (40) 
12

>  <has_macrocycle_12_20>  (40) 
True

>  <has_constrained_ring_8_11>  (40) 
False

>  <passes_basic_filters>  (40) 
True

>  <generation_notes>  (40) 
selfies_token_mutation

>  <best_score>  (40) 
nan

>  <qed_admet>  (40) 
0.6915

>  <sa_score_admet>  (40) 
3.45

>  <mw_admet>  (40) 
314.389

>  <logp_admet>  (40) 
1.6613

>  <tpsa_admet>  (40) 
67.57

>  <hbd_admet>  (40) 
1

>  <hba_admet>  (40) 
6

>  <rotatable_bonds_admet>  (40) 
0

>  <lipinski_violations>  (40) 
0

>  <veber_pass>  (40) 
True

>  <admet_score>  (40) 
0.861175

>  <synthesis_score>  (40) 
0.727778

>  <safety_proxy_score>  (40) 
1.0

>  <main_risk>  (40) 
no_major_descriptor_risk

>  <pose_score>  (40) 
0.5

>  <pose_decision>  (40) 
nan

>  <contacts_within_4A>  (40) 
nan

>  <hard_clashes_lt_1_8A>  (40) 
nan

>  <smiles>  (40) 
C[C@H]1C=C2C=CCNC(=N2)C2=NCC=CCC=NC(COC2)O1

>  <docking_score>  (40) 
nan

>  <diversity_cluster>  (40) 
scaffold_68a9ed21

>  <docking_score_scaled>  (40) 
0.0

>  <novelty_score>  (40) 
1.0

>  <final_weighted_score>  (40) 
0.506402

>  <rank>  (40) 
824

>  <decision>  (40) 
await_docking

>  <diverse_rank>  (40) 
559

>  <selection_tier>  (40) 
await_docking

$$$$
CAND_efcc99d5da
     RDKit          3D

 39 41  0  0  0  0  0  0  0  0999 V2000
   -4.2578   -1.3792   -0.3404 C   0  0  0  0  0  0  0  0  0  0  0  0
   -3.5628   -0.8680    0.7954 O   0  0  0  0  0  0  0  0  0  0  0  0
   -2.2373   -0.6561    0.4846 C   0  0  0  0  0  0  0  0  0  0  0  0
   -1.7525    0.5144   -0.0315 C   0  0  0  0  0  0  0  0  0  0  0  0
   -2.5972    1.5537   -0.4048 O   0  0  0  0  0  0  0  0  0  0  0  0
   -3.0620    2.2644    0.7428 C   0  0  0  0  0  0  0  0  0  0  0  0
   -0.2920    0.6713   -0.3023 C   0  0  0  0  0  0  0  0  0  0  0  0
    0.3961    0.6328    0.9752 N   0  0  0  0  0  0  0  0  0  0  0  0
    0.5778    1.7180    0.3012 C   0  0  0  0  0  0  0  0  0  0  0  0
    1.9857    2.1692    0.1211 C   0  0  0  0  0  0  0  0  0  0  0  0
    2.1532    3.5637    0.0065 O   0  0  0  0  0  0  0  0  0  0  0  0
    3.1827    4.0563   -0.7388 C   0  0  0  0  0  0  0  0  0  0  0  0
    3.9828    3.4405   -1.4234 O   0  0  0  0  0  0  0  0  0  0  0  0
    2.9932    1.2575    0.2103 C   0  0  0  0  0  0  0  0  0  0  0  0
    2.8330   -0.1039    0.3805 N   0  0  0  0  0  0  0  0  0  0  0  0
    3.6431   -1.1651    0.6769 C   0  0  0  0  0  0  0  0  0  0  0  0
    3.3214   -2.4311    0.7051 N   0  0  0  0  0  0  0  0  0  0  0  0
    2.0754   -2.7136    0.1840 C   0  0  0  0  0  0  0  0  0  0  0  0
    0.9140   -2.6349    0.8646 C   0  0  0  0  0  0  0  0  0  0  0  0
   -0.3612   -2.2874    0.1940 C   0  0  0  0  0  0  0  0  0  0  0  0
   -1.3242   -1.7096    0.9576 C   0  0  0  0  0  0  0  0  0  0  0  0
   -0.4537   -2.1597   -1.2601 C   0  0  0  0  0  0  0  0  0  0  0  0
   -0.1141   -1.0677   -1.9616 C   0  0  0  0  0  0  0  0  0  0  0  0
    0.3617    0.1282   -1.4845 O   0  0  0  0  0  0  0  0  0  0  0  0
   -5.3006   -1.5410   -0.0518 H   0  0  0  0  0  0  0  0  0  0  0  0
   -3.8395   -2.3405   -0.6582 H   0  0  0  0  0  0  0  0  0  0  0  0
   -4.2420   -0.6648   -1.1706 H   0  0  0  0  0  0  0  0  0  0  0  0
   -3.6084    3.1446    0.3911 H   0  0  0  0  0  0  0  0  0  0  0  0
   -3.7509    1.6581    1.3385 H   0  0  0  0  0  0  0  0  0  0  0  0
   -2.2261    2.6095    1.3611 H   0  0  0  0  0  0  0  0  0  0  0  0
    3.1755    5.1542   -0.6467 H   0  0  0  0  0  0  0  0  0  0  0  0
    4.0381    1.5487    0.1702 H   0  0  0  0  0  0  0  0  0  0  0  0
    1.8441   -0.3576    0.4073 H   0  0  0  0  0  0  0  0  0  0  0  0
    4.6692   -0.8665    0.9501 H   0  0  0  0  0  0  0  0  0  0  0  0
    2.0756   -2.7970   -0.9016 H   0  0  0  0  0  0  0  0  0  0  0  0
    0.9646   -2.4884    1.9418 H   0  0  0  0  0  0  0  0  0  0  0  0
   -1.2741   -1.7570    2.0445 H   0  0  0  0  0  0  0  0  0  0  0  0
   -0.7933   -3.0502   -1.7833 H   0  0  0  0  0  0  0  0  0  0  0  0
   -0.1375   -1.0458   -3.0446 H   0  0  0  0  0  0  0  0  0  0  0  0
  1  2  1  0
  2  3  1  0
  3  4  2  3
  4  5  1  0
  5  6  1  0
  4  7  1  0
  7  8  1  0
  8  9  2  0
  9 10  1  0
 10 11  1  0
 11 12  1  0
 12 13  2  0
 10 14  2  3
 14 15  1  0
 15 16  1  0
 16 17  2  3
 17 18  1  0
 18 19  2  3
 19 20  1  0
 20 21  2  3
 20 22  1  0
 22 23  2  3
 23 24  1  0
 21  3  1  0
  9  7  1  0
 24  7  1  0
  1 25  1  0
  1 26  1  0
  1 27  1  0
  6 28  1  0
  6 29  1  0
  6 30  1  0
 12 31  1  0
 14 32  1  0
 15 33  1  0
 16 34  1  0
 18 35  1  0
 19 36  1  0
 21 37  1  0
 22 38  1  0
 23 39  1  0
M  END
>  <candidate_id>  (41) 
CAND_efcc99d5da

>  <source_generator>  (41) 
selfies

>  <parent_mol_id>  (41) 
JAK2_523a543e49

>  <canonical_smiles>  (41) 
COC1=C(OC)C23N=C2C(OC=O)=CNC=NC=CC(=C1)C=CO3

>  <inchikey>  (41) 
REUOGBUKQXHPAC-UHFFFAOYSA-N

>  <valid_rdkit>  (41) 
True

>  <unique_flag>  (41) 
True

>  <novel_flag>  (41) 
True

>  <mw>  (41) 
329.312

>  <logp>  (41) 
1.2716

>  <tpsa>  (41) 
90.74

>  <hbd>  (41) 
1

>  <hba>  (41) 
8

>  <rotatable_bonds>  (41) 
4

>  <qed>  (41) 
0.7813

>  <sa_score>  (41) 
3.95

>  <murcko_scaffold>  (41) 
C1=CC23N=C2C=CNC=NC=CC(=C1)C=CO3

>  <max_ring_size>  (41) 
13

>  <has_macrocycle_12_20>  (41) 
True

>  <has_constrained_ring_8_11>  (41) 
False

>  <passes_basic_filters>  (41) 
True

>  <generation_notes>  (41) 
selfies_token_mutation

>  <best_score>  (41) 
nan

>  <qed_admet>  (41) 
0.7813

>  <sa_score_admet>  (41) 
3.95

>  <mw_admet>  (41) 
329.312

>  <logp_admet>  (41) 
1.2716

>  <tpsa_admet>  (41) 
90.74

>  <hbd_admet>  (41) 
1

>  <hba_admet>  (41) 
8

>  <rotatable_bonds_admet>  (41) 
4

>  <lipinski_violations>  (41) 
0

>  <veber_pass>  (41) 
True

>  <admet_score>  (41) 
0.901585

>  <synthesis_score>  (41) 
0.672222

>  <safety_proxy_score>  (41) 
1.0

>  <main_risk>  (41) 
no_major_descriptor_risk

>  <pose_score>  (41) 
0.5

>  <pose_decision>  (41) 
nan

>  <contacts_within_4A>  (41) 
nan

>  <hard_clashes_lt_1_8A>  (41) 
nan

>  <smiles>  (41) 
COC1=C(OC)C23N=C2C(OC=O)=CNC=NC=CC(=C1)C=CO3

>  <docking_score>  (41) 
nan

>  <diversity_cluster>  (41) 
scaffold_d867dd50

>  <docking_score_scaled>  (41) 
0.0

>  <novelty_score>  (41) 
1.0

>  <final_weighted_score>  (41) 
0.50615

>  <rank>  (41) 
835

>  <decision>  (41) 
await_docking

>  <diverse_rank>  (41) 
570

>  <selection_tier>  (41) 
await_docking

$$$$
CAND_68664579d9
     RDKit          3D

 52 54  0  0  0  0  0  0  0  0999 V2000
    2.8599   -2.8229   -0.2605 C   0  0  0  0  0  0  0  0  0  0  0  0
    4.0975   -2.0093    0.0803 C   0  0  0  0  0  0  0  0  0  0  0  0
    3.8368   -0.7767    0.9557 C   0  0  0  0  0  0  0  0  0  0  0  0
    3.1629    0.4093    0.2324 C   0  0  2  0  0  0  0  0  0  0  0  0
    3.3085    1.6915    1.0999 C   0  0  0  0  0  0  0  0  0  0  0  0
    3.0189    2.9849    0.3775 C   0  0  0  0  0  0  0  0  0  0  0  0
    1.8254    3.5705    0.2045 C   0  0  0  0  0  0  0  0  0  0  0  0
    1.7788    4.7099   -0.5224 F   0  0  0  0  0  0  0  0  0  0  0  0
    0.5700    3.0389    0.6691 C   0  0  0  0  0  0  0  0  0  0  0  0
   -0.5840    3.1978    0.0010 C   0  0  0  0  0  0  0  0  0  0  0  0
   -1.8802    2.4820    0.2519 C   0  0  0  0  0  0  0  0  0  0  0  0
   -1.7181    0.8499    1.0461 S   0  0  0  0  0  0  0  0  0  0  0  0
   -1.4180   -0.3432   -0.3916 C   0  0  0  0  0  0  0  0  0  0  0  0
   -0.3074    0.2037   -1.2968 C   0  0  0  0  0  0  0  0  0  0  0  0
    1.0132    0.3323   -1.0965 C   0  0  0  0  0  0  0  0  0  0  0  0
    1.7467    0.1034    0.0360 N   0  0  0  0  0  0  0  0  0  0  0  0
   -0.9650   -1.6978    0.2480 C   0  0  0  0  0  0  0  0  0  0  0  0
   -2.0873   -2.4441    0.9805 C   0  0  0  0  0  0  0  0  0  0  0  0
   -3.2265   -2.7199    0.1042 N   0  0  0  0  0  0  0  0  0  0  0  0
   -3.6540   -1.5053   -0.4531 N   0  0  0  0  0  0  0  0  0  0  0  0
   -4.9763   -1.1679   -0.3448 C   0  0  0  0  0  0  0  0  0  0  0  0
   -5.4970   -0.0848   -0.9196 C   0  0  0  0  0  0  0  0  0  0  0  0
   -4.5488    0.7340   -1.6967 C   0  0  0  0  0  0  0  0  0  0  0  0
   -3.2904    0.5375   -1.8846 N   0  0  0  0  0  0  0  0  0  0  0  0
   -2.7218   -0.6728   -1.2442 C   0  0  0  0  0  0  0  0  0  0  0  0
    2.2295   -2.3112   -0.9910 H   0  0  0  0  0  0  0  0  0  0  0  0
    3.1538   -3.7796   -0.7049 H   0  0  0  0  0  0  0  0  0  0  0  0
    2.2645   -3.0351    0.6328 H   0  0  0  0  0  0  0  0  0  0  0  0
    4.6113   -1.7153   -0.8422 H   0  0  0  0  0  0  0  0  0  0  0  0
    4.7877   -2.6654    0.6255 H   0  0  0  0  0  0  0  0  0  0  0  0
    3.2552   -1.0676    1.8400 H   0  0  0  0  0  0  0  0  0  0  0  0
    4.8165   -0.4459    1.3246 H   0  0  0  0  0  0  0  0  0  0  0  0
    3.6628    0.5661   -0.7323 H   0  0  0  0  0  0  0  0  0  0  0  0
    4.3425    1.7680    1.4618 H   0  0  0  0  0  0  0  0  0  0  0  0
    2.6918    1.6101    2.0036 H   0  0  0  0  0  0  0  0  0  0  0  0
    3.8777    3.4788   -0.0709 H   0  0  0  0  0  0  0  0  0  0  0  0
    0.6092    2.3734    1.5247 H   0  0  0  0  0  0  0  0  0  0  0  0
   -0.5909    3.8419   -0.8772 H   0  0  0  0  0  0  0  0  0  0  0  0
   -2.4259    2.4022   -0.6864 H   0  0  0  0  0  0  0  0  0  0  0  0
   -2.4937    3.1098    0.9075 H   0  0  0  0  0  0  0  0  0  0  0  0
   -0.6579    0.5219   -2.2800 H   0  0  0  0  0  0  0  0  0  0  0  0
    1.6191    0.7255   -1.9133 H   0  0  0  0  0  0  0  0  0  0  0  0
    1.2086   -0.0747    0.8795 H   0  0  0  0  0  0  0  0  0  0  0  0
   -0.1432   -1.5640    0.9586 H   0  0  0  0  0  0  0  0  0  0  0  0
   -0.5747   -2.3556   -0.5423 H   0  0  0  0  0  0  0  0  0  0  0  0
   -1.6978   -3.3995    1.3506 H   0  0  0  0  0  0  0  0  0  0  0  0
   -2.4217   -1.8911    1.8657 H   0  0  0  0  0  0  0  0  0  0  0  0
   -2.9491   -3.3696   -0.6352 H   0  0  0  0  0  0  0  0  0  0  0  0
   -5.5820   -1.8451    0.2502 H   0  0  0  0  0  0  0  0  0  0  0  0
   -6.5341    0.2034   -0.8451 H   0  0  0  0  0  0  0  0  0  0  0  0
   -5.0022    1.6251   -2.1627 H   0  0  0  0  0  0  0  0  0  0  0  0
   -2.4006   -1.3073   -2.0839 H   0  0  0  0  0  0  0  0  0  0  0  0
  1  2  1  0
  2  3  1  0
  3  4  1  0
  4  5  1  0
  5  6  1  0
  6  7  2  3
  7  8  1  0
  7  9  1  0
  9 10  2  3
 10 11  1  0
 11 12  1  0
 12 13  1  0
 13 14  1  0
 14 15  2  3
 15 16  1  0
 13 17  1  0
 17 18  1  0
 18 19  1  0
 19 20  1  0
 20 21  1  0
 21 22  2  0
 22 23  1  0
 23 24  2  0
 24 25  1  0
 16  4  1  0
 25 20  1  0
 25 13  1  0
  1 26  1  0
  1 27  1  0
  1 28  1  0
  2 29  1  0
  2 30  1  0
  3 31  1  0
  3 32  1  0
  4 33  1  6
  5 34  1  0
  5 35  1  0
  6 36  1  0
  9 37  1  0
 10 38  1  0
 11 39  1  0
 11 40  1  0
 14 41  1  0
 15 42  1  0
 16 43  1  0
 17 44  1  0
 17 45  1  0
 18 46  1  0
 18 47  1  0
 19 48  1  0
 21 49  1  0
 22 50  1  0
 23 51  1  0
 25 52  1  0
M  END
>  <candidate_id>  (42) 
CAND_68664579d9

>  <source_generator>  (42) 
selfies

>  <parent_mol_id>  (42) 
JAK2_22b5f1b127

>  <canonical_smiles>  (42) 
CCC[C@@H]1CC=C(F)C=CCSC2(C=CN1)CCNN1C=CC=NC12

>  <inchikey>  (42) 
DVCJCBGSFYQFEN-LMDPOFIKSA-N

>  <valid_rdkit>  (42) 
True

>  <unique_flag>  (42) 
True

>  <novel_flag>  (42) 
True

>  <mw>  (42) 
362.518

>  <logp>  (42) 
3.6782

>  <tpsa>  (42) 
39.66

>  <hbd>  (42) 
2

>  <hba>  (42) 
5

>  <rotatable_bonds>  (42) 
2

>  <qed>  (42) 
0.7861

>  <sa_score>  (42) 
4.02

>  <murcko_scaffold>  (42) 
C1=CCCNC=CC2(CCNN3C=CC=NC32)SCC=C1

>  <max_ring_size>  (42) 
12

>  <has_macrocycle_12_20>  (42) 
True

>  <has_constrained_ring_8_11>  (42) 
False

>  <passes_basic_filters>  (42) 
True

>  <generation_notes>  (42) 
selfies_token_mutation

>  <best_score>  (42) 
nan

>  <qed_admet>  (42) 
0.7861

>  <sa_score_admet>  (42) 
4.02

>  <mw_admet>  (42) 
362.518

>  <logp_admet>  (42) 
3.6782

>  <tpsa_admet>  (42) 
39.66

>  <hbd_admet>  (42) 
2

>  <hba_admet>  (42) 
5

>  <rotatable_bonds_admet>  (42) 
2

>  <lipinski_violations>  (42) 
0

>  <veber_pass>  (42) 
True

>  <admet_score>  (42) 
0.903745

>  <synthesis_score>  (42) 
0.664444

>  <safety_proxy_score>  (42) 
1.0

>  <main_risk>  (42) 
no_major_descriptor_risk

>  <pose_score>  (42) 
0.5

>  <pose_decision>  (42) 
nan

>  <contacts_within_4A>  (42) 
nan

>  <hard_clashes_lt_1_8A>  (42) 
nan

>  <smiles>  (42) 
CCC[C@@H]1CC=C(F)C=CCSC2(C=CN1)CCNN1C=CC=NC12

>  <docking_score>  (42) 
nan

>  <diversity_cluster>  (42) 
scaffold_5eb396fd

>  <docking_score_scaled>  (42) 
0.0

>  <novelty_score>  (42) 
1.0

>  <final_weighted_score>  (42) 
0.505416

>  <rank>  (42) 
859

>  <decision>  (42) 
await_docking

>  <diverse_rank>  (42) 
585

>  <selection_tier>  (42) 
await_docking

$$$$
CAND_b7f89eaaeb
     RDKit          3D

 43 45  0  0  0  0  0  0  0  0999 V2000
   -0.3408   -1.7251    1.0238 C   0  0  0  0  0  0  0  0  0  0  0  0
   -0.1107   -0.5093    0.2359 O   0  0  0  0  0  0  0  0  0  0  0  0
   -0.0890    0.7910   -0.1522 C   0  0  0  0  0  0  0  0  0  0  0  0
    0.7314    1.0453   -1.2149 C   0  0  0  0  0  0  0  0  0  0  0  0
    1.8504    1.6384   -0.7365 C   0  0  0  0  0  0  0  0  0  0  0  0
    1.6087    2.8594   -0.1268 C   0  0  0  0  0  0  0  0  0  0  0  0
    0.3151    3.0623    0.3858 C   0  0  0  0  0  0  0  0  0  0  0  0
   -0.5289    1.9325    0.4815 C   0  0  0  0  0  0  0  0  0  0  0  0
   -1.6145    1.9004    1.4661 C   0  0  0  0  0  0  0  0  0  0  0  0
   -1.8469    0.6601    1.9206 C   0  0  0  0  0  0  0  0  0  0  0  0
   -1.0265    0.3074    3.1418 C   0  0  0  0  0  0  0  0  0  0  0  0
    0.3388    0.2107    3.2913 C   0  0  0  0  0  0  0  0  0  0  0  0
    1.4641    0.3206    2.2305 C   0  0  0  0  0  0  0  0  0  0  0  0
    1.9686   -0.6823    1.5905 N   0  0  0  0  0  0  0  0  0  0  0  0
    2.5475   -0.5575    0.1949 C   0  0  0  0  0  0  0  0  0  0  0  0
    2.0524   -1.5284   -0.8947 N   0  0  0  0  0  0  0  0  0  0  0  0
    0.8562   -2.0530   -1.5415 C   0  0  0  0  0  0  0  0  0  0  0  0
   -0.5041   -1.9411   -1.7912 C   0  0  0  0  0  0  0  0  0  0  0  0
   -1.7595   -1.0382   -1.5773 C   0  0  0  0  0  0  0  0  0  0  0  0
   -2.5488   -0.4386   -0.5942 C   0  0  0  0  0  0  0  0  0  0  0  0
   -3.7045    0.3498   -1.1544 C   0  0  0  0  0  0  0  0  0  0  0  0
   -3.8953    0.5865   -2.3424 O   0  0  0  0  0  0  0  0  0  0  0  0
   -2.5926   -0.4203    1.0079 C   0  0  0  0  0  0  0  0  0  0  0  0
   -3.3462   -1.3183    1.5846 N   0  0  0  0  0  0  0  0  0  0  0  0
    2.8885    0.7851   -0.3472 N   0  0  0  0  0  0  0  0  0  0  0  0
   -1.1377   -2.3478    0.6063 H   0  0  0  0  0  0  0  0  0  0  0  0
    0.5319   -2.3850    0.9779 H   0  0  0  0  0  0  0  0  0  0  0  0
   -0.5519   -1.6276    2.0774 H   0  0  0  0  0  0  0  0  0  0  0  0
    0.8923    0.2917   -1.9740 H   0  0  0  0  0  0  0  0  0  0  0  0
    2.4115    3.5371    0.1403 H   0  0  0  0  0  0  0  0  0  0  0  0
    0.0875    3.9829    0.9150 H   0  0  0  0  0  0  0  0  0  0  0  0
   -1.4173    2.6830    2.2034 H   0  0  0  0  0  0  0  0  0  0  0  0
   -1.6440    0.1055    4.0165 H   0  0  0  0  0  0  0  0  0  0  0  0
    0.7398   -0.0638    4.2640 H   0  0  0  0  0  0  0  0  0  0  0  0
    1.7487    1.3588    2.0186 H   0  0  0  0  0  0  0  0  0  0  0  0
    3.5503   -0.9653    0.3795 H   0  0  0  0  0  0  0  0  0  0  0  0
    2.8801   -1.9373   -1.3170 H   0  0  0  0  0  0  0  0  0  0  0  0
    1.2606   -2.9291   -2.0613 H   0  0  0  0  0  0  0  0  0  0  0  0
   -0.8583   -2.7443   -2.4521 H   0  0  0  0  0  0  0  0  0  0  0  0
   -2.1050   -0.8458   -2.6019 H   0  0  0  0  0  0  0  0  0  0  0  0
   -4.4066    0.7244   -0.3900 H   0  0  0  0  0  0  0  0  0  0  0  0
   -3.3176   -1.2044    2.6023 H   0  0  0  0  0  0  0  0  0  0  0  0
    3.7677    1.1840   -0.0616 H   0  0  0  0  0  0  0  0  0  0  0  0
  1  2  1  0
  2  3  1  0
  3  4  2  0
  4  5  1  0
  5  6  2  0
  6  7  1  0
  7  8  2  0
  8  9  1  0
  9 10  2  3
 10 11  1  0
 11 12  2  3
 12 13  1  0
 13 14  2  3
 14 15  1  0
 15 16  1  0
 16 17  1  0
 17 18  2  3
 18 19  1  0
 19 20  2  3
 20 21  1  0
 21 22  2  0
 20 23  1  0
 23 24  2  3
 15 25  1  0
  8  3  1  0
 23 10  1  0
 25  5  1  0
  1 26  1  0
  1 27  1  0
  1 28  1  0
  4 29  1  0
  6 30  1  0
  7 31  1  0
  9 32  1  0
 11 33  1  0
 12 34  1  0
 13 35  1  0
 15 36  1  0
 16 37  1  0
 17 38  1  0
 18 39  1  0
 19 40  1  0
 21 41  1  0
 24 42  1  0
 25 43  1  0
M  END
>  <candidate_id>  (43) 
CAND_b7f89eaaeb

>  <source_generator>  (43) 
selfies

>  <parent_mol_id>  (43) 
JAK2_b891e0a2ae

>  <canonical_smiles>  (43) 
COc1cc2ccc1C=C1C=CC=NC(NC=CC=C(C=O)C1=N)N2

>  <inchikey>  (43) 
KLMMHFRKXCQXAT-UHFFFAOYSA-N

>  <valid_rdkit>  (43) 
True

>  <unique_flag>  (43) 
True

>  <novel_flag>  (43) 
True

>  <mw>  (43) 
334.379

>  <logp>  (43) 
2.6767

>  <tpsa>  (43) 
86.57

>  <hbd>  (43) 
3

>  <hba>  (43) 
6

>  <rotatable_bonds>  (43) 
2

>  <qed>  (43) 
0.7259

>  <sa_score>  (43) 
3.7

>  <murcko_scaffold>  (43) 
N=C1C=CC=CNC2N=CC=CC1=Cc1ccc(cc1)N2

>  <max_ring_size>  (43) 
12

>  <has_macrocycle_12_20>  (43) 
True

>  <has_constrained_ring_8_11>  (43) 
False

>  <passes_basic_filters>  (43) 
True

>  <generation_notes>  (43) 
selfies_token_mutation

>  <best_score>  (43) 
nan

>  <qed_admet>  (43) 
0.7259

>  <sa_score_admet>  (43) 
3.7

>  <mw_admet>  (43) 
334.379

>  <logp_admet>  (43) 
2.6767

>  <tpsa_admet>  (43) 
86.57

>  <hbd_admet>  (43) 
3

>  <hba_admet>  (43) 
6

>  <rotatable_bonds_admet>  (43) 
2

>  <lipinski_violations>  (43) 
0

>  <veber_pass>  (43) 
True

>  <admet_score>  (43) 
0.876655

>  <synthesis_score>  (43) 
0.7

>  <safety_proxy_score>  (43) 
1.0

>  <main_risk>  (43) 
no_major_descriptor_risk

>  <pose_score>  (43) 
0.5

>  <pose_decision>  (43) 
nan

>  <contacts_within_4A>  (43) 
nan

>  <hard_clashes_lt_1_8A>  (43) 
nan

>  <smiles>  (43) 
COc1cc2ccc1C=C1C=CC=NC(NC=CC=C(C=O)C1=N)N2

>  <docking_score>  (43) 
nan

>  <diversity_cluster>  (43) 
scaffold_35cfcf4c

>  <docking_score_scaled>  (43) 
0.0

>  <novelty_score>  (43) 
1.0

>  <final_weighted_score>  (43) 
0.505331

>  <rank>  (43) 
867

>  <decision>  (43) 
await_docking

>  <diverse_rank>  (43) 
589

>  <selection_tier>  (43) 
await_docking

$$$$
CAND_a2f01d5a38
     RDKit          3D

 41 43  0  0  0  0  0  0  0  0999 V2000
    8.0214    0.8901   -0.0565 O   0  0  0  0  0  0  0  0  0  0  0  0
    7.5671   -0.1343    0.4335 C   0  0  0  0  0  0  0  0  0  0  0  0
    6.2596   -0.5638    0.3802 N   0  0  0  0  0  0  0  0  0  0  0  0
    5.2656    0.1309   -0.2607 C   0  0  0  0  0  0  0  0  0  0  0  0
    3.9992   -0.3041   -0.2961 C   0  0  0  0  0  0  0  0  0  0  0  0
    2.9497    0.4096   -0.9924 C   0  0  0  0  0  0  0  0  0  0  0  0
    1.6421    0.1121   -1.0075 C   0  0  0  0  0  0  0  0  0  0  0  0
    0.6591    0.7470   -1.7413 N   0  0  0  0  0  0  0  0  0  0  0  0
   -0.5183    0.0641   -1.5999 C   0  0  0  0  0  0  0  0  0  0  0  0
   -0.3462   -1.0435   -0.9110 N   0  0  0  0  0  0  0  0  0  0  0  0
    0.8864   -0.9229   -0.2863 C   0  0  0  0  0  0  0  0  0  0  0  0
    1.0159   -1.3618    0.9876 C   0  0  0  0  0  0  0  0  0  0  0  0
   -0.1739   -1.9285    1.6465 C   0  0  0  0  0  0  0  0  0  0  0  0
   -1.1174   -1.0846    2.1229 C   0  0  0  0  0  0  0  0  0  0  0  0
   -2.5403   -1.3124    1.8895 C   0  0  0  0  0  0  0  0  0  0  0  0
   -2.9097   -2.5366    1.4513 F   0  0  0  0  0  0  0  0  0  0  0  0
   -3.3675   -0.2681    1.6858 C   0  0  0  0  0  0  0  0  0  0  0  0
   -4.5069   -0.2959    0.6769 C   0  0  0  0  0  0  0  0  0  0  0  0
   -5.5945    0.4379    1.2178 O   0  0  0  0  0  0  0  0  0  0  0  0
   -3.9823    0.3582   -0.6132 C   0  0  0  0  0  0  0  0  0  0  0  0
   -4.3314    1.6354   -1.0554 C   0  0  0  0  0  0  0  0  0  0  0  0
   -3.5004    2.3152   -1.9638 C   0  0  0  0  0  0  0  0  0  0  0  0
   -2.2540    1.7819   -2.3326 C   0  0  0  0  0  0  0  0  0  0  0  0
   -1.1797    2.7745   -3.2461 Cl  0  0  0  0  0  0  0  0  0  0  0  0
   -1.9091    0.5077   -1.8943 C   0  0  0  0  0  0  0  0  0  0  0  0
   -2.8703   -0.2542   -1.2064 C   0  0  0  0  0  0  0  0  0  0  0  0
    8.1988   -0.8444    0.9936 H   0  0  0  0  0  0  0  0  0  0  0  0
    6.0304   -1.4389    0.8363 H   0  0  0  0  0  0  0  0  0  0  0  0
    5.5698    1.0608   -0.7405 H   0  0  0  0  0  0  0  0  0  0  0  0
    3.7388   -1.2423    0.1837 H   0  0  0  0  0  0  0  0  0  0  0  0
    3.2787    1.2522   -1.5991 H   0  0  0  0  0  0  0  0  0  0  0  0
    0.8051    1.5954   -2.2648 H   0  0  0  0  0  0  0  0  0  0  0  0
    1.8704   -1.1263    1.6083 H   0  0  0  0  0  0  0  0  0  0  0  0
   -0.4491   -2.9252    1.3026 H   0  0  0  0  0  0  0  0  0  0  0  0
   -0.8371   -0.0499    2.3155 H   0  0  0  0  0  0  0  0  0  0  0  0
   -3.0404    0.7338    1.9572 H   0  0  0  0  0  0  0  0  0  0  0  0
   -4.8507   -1.3123    0.4539 H   0  0  0  0  0  0  0  0  0  0  0  0
   -5.8789   -0.0478    2.0103 H   0  0  0  0  0  0  0  0  0  0  0  0
   -5.2039    2.1392   -0.6436 H   0  0  0  0  0  0  0  0  0  0  0  0
   -3.7824    3.3158   -2.2854 H   0  0  0  0  0  0  0  0  0  0  0  0
   -2.6137   -1.2639   -0.8812 H   0  0  0  0  0  0  0  0  0  0  0  0
  1  2  2  0
  2  3  1  0
  3  4  1  0
  4  5  2  3
  5  6  1  0
  6  7  2  3
  7  8  1  0
  8  9  1  0
  9 10  2  0
 10 11  1  0
 11 12  2  3
 12 13  1  0
 13 14  2  3
 14 15  1  0
 15 16  1  0
 15 17  2  3
 17 18  1  0
 18 19  1  0
 18 20  1  0
 20 21  2  0
 21 22  1  0
 22 23  2  0
 23 24  1  0
 23 25  1  0
 25 26  2  0
 11  7  1  0
 26 20  1  0
 25  9  1  0
  2 27  1  0
  3 28  1  0
  4 29  1  0
  5 30  1  0
  6 31  1  0
  8 32  1  0
 12 33  1  0
 13 34  1  0
 14 35  1  0
 17 36  1  0
 18 37  1  0
 19 38  1  0
 21 39  1  0
 22 40  1  0
 26 41  1  0
M  END
>  <candidate_id>  (44) 
CAND_a2f01d5a38

>  <source_generator>  (44) 
selfies

>  <parent_mol_id>  (44) 
JAK2_8b3014135f

>  <canonical_smiles>  (44) 
O=CNC=CC=c1[nH]c2nc1=CC=CC(F)=CC(O)c1ccc(Cl)c-2c1

>  <inchikey>  (44) 
APUNIQXGYNTAHG-UHFFFAOYSA-N

>  <valid_rdkit>  (44) 
True

>  <unique_flag>  (44) 
True

>  <novel_flag>  (44) 
True

>  <mw>  (44) 
371.799

>  <logp>  (44) 
2.0074

>  <tpsa>  (44) 
78.01

>  <hbd>  (44) 
3

>  <hba>  (44) 
3

>  <rotatable_bonds>  (44) 
3

>  <qed>  (44) 
0.7221

>  <sa_score>  (44) 
3.696

>  <murcko_scaffold>  (44) 
C=c1[nH]c2nc1=CC=CC=CCc1cccc-2c1

>  <max_ring_size>  (44) 
12

>  <has_macrocycle_12_20>  (44) 
True

>  <has_constrained_ring_8_11>  (44) 
False

>  <passes_basic_filters>  (44) 
True

>  <generation_notes>  (44) 
selfies_token_mutation

>  <best_score>  (44) 
nan

>  <qed_admet>  (44) 
0.7221

>  <sa_score_admet>  (44) 
3.696

>  <mw_admet>  (44) 
371.799

>  <logp_admet>  (44) 
2.0074

>  <tpsa_admet>  (44) 
78.01

>  <hbd_admet>  (44) 
3

>  <hba_admet>  (44) 
3

>  <rotatable_bonds_admet>  (44) 
3

>  <lipinski_violations>  (44) 
0

>  <veber_pass>  (44) 
True

>  <admet_score>  (44) 
0.874945

>  <synthesis_score>  (44) 
0.700444

>  <safety_proxy_score>  (44) 
1.0

>  <main_risk>  (44) 
no_major_descriptor_risk

>  <pose_score>  (44) 
0.5

>  <pose_decision>  (44) 
nan

>  <contacts_within_4A>  (44) 
nan

>  <hard_clashes_lt_1_8A>  (44) 
nan

>  <smiles>  (44) 
O=CNC=CC=c1[nH]c2nc1=CC=CC(F)=CC(O)c1ccc(Cl)c-2c1

>  <docking_score>  (44) 
nan

>  <diversity_cluster>  (44) 
scaffold_6c4fe7c0

>  <docking_score_scaled>  (44) 
0.0

>  <novelty_score>  (44) 
1.0

>  <final_weighted_score>  (44) 
0.505056

>  <rank>  (44) 
878

>  <decision>  (44) 
await_docking

>  <diverse_rank>  (44) 
598

>  <selection_tier>  (44) 
await_docking

$$$$
CAND_f169596727
     RDKit          3D

 53 57  0  0  0  0  0  0  0  0999 V2000
    2.1656    2.1305   -0.6913 C   0  0  0  0  0  0  0  0  0  0  0  0
    2.1486    2.3074    0.6358 C   0  0  0  0  0  0  0  0  0  0  0  0
    1.4776    1.5765    1.7508 C   0  0  0  0  0  0  0  0  0  0  0  0
    0.3186    1.0328    1.9091 N   0  0  0  0  0  0  0  0  0  0  0  0
   -0.5437    0.8981    0.8477 C   0  0  0  0  0  0  0  0  0  0  0  0
   -0.7401   -0.2575    0.2790 N   0  0  0  0  0  0  0  0  0  0  0  0
   -0.4426   -1.4010    0.9503 N   0  0  0  0  0  0  0  0  0  0  0  0
    0.8685   -2.0389    0.7071 C   0  0  0  0  0  0  0  0  0  0  0  0
    1.9690   -1.2172    1.1171 O   0  0  0  0  0  0  0  0  0  0  0  0
    3.0577   -1.3135    0.2950 C   0  0  0  0  0  0  0  0  0  0  0  0
    4.2075   -1.8730    0.8578 C   0  0  0  0  0  0  0  0  0  0  0  0
    5.3815   -1.9601    0.1111 C   0  0  0  0  0  0  0  0  0  0  0  0
    5.4126   -1.4699   -1.1929 C   0  0  0  0  0  0  0  0  0  0  0  0
    4.2715   -0.8853   -1.7479 C   0  0  0  0  0  0  0  0  0  0  0  0
    3.0846   -0.7921   -1.0073 C   0  0  0  0  0  0  0  0  0  0  0  0
    1.9252   -0.1558   -1.6407 C   0  0  0  0  0  0  0  0  0  0  0  0
    1.5332    1.1175   -1.4916 C   0  0  0  0  0  0  0  0  0  0  0  0
   -1.4886   -2.4514    0.8509 C   0  0  0  0  0  0  0  0  0  0  0  0
   -2.8557   -2.0170    0.5047 N   0  0  0  0  0  0  0  0  0  0  0  0
   -3.0704   -1.7357   -0.9276 C   0  0  0  0  0  0  0  0  0  0  0  0
   -2.9187   -0.2797   -1.4537 C   0  0  0  0  0  0  0  0  0  0  0  0
   -3.3082    0.7243   -0.4551 N   0  0  0  0  0  0  0  0  0  0  0  0
   -4.1041    0.2177    0.6737 C   0  0  0  0  0  0  0  0  0  0  0  0
   -3.4117   -0.9739    1.3866 C   0  0  0  0  0  0  0  0  0  0  0  0
   -2.5878    1.8773   -0.3063 C   0  0  0  0  0  0  0  0  0  0  0  0
   -2.9928    3.1542   -0.6395 C   0  0  0  0  0  0  0  0  0  0  0  0
   -2.0827    4.0655   -0.0668 C   0  0  0  0  0  0  0  0  0  0  0  0
   -1.1400    3.3250    0.6076 C   0  0  0  0  0  0  0  0  0  0  0  0
   -1.3563    1.9710    0.3714 N   0  0  0  0  0  0  0  0  0  0  0  0
    2.7171    2.8600   -1.2848 H   0  0  0  0  0  0  0  0  0  0  0  0
    2.7344    3.1405    1.0222 H   0  0  0  0  0  0  0  0  0  0  0  0
    2.0984    1.5811    2.6654 H   0  0  0  0  0  0  0  0  0  0  0  0
    0.9407   -2.3573   -0.3411 H   0  0  0  0  0  0  0  0  0  0  0  0
    0.9427   -2.9461    1.3207 H   0  0  0  0  0  0  0  0  0  0  0  0
    4.1856   -2.2383    1.8810 H   0  0  0  0  0  0  0  0  0  0  0  0
    6.2725   -2.4022    0.5491 H   0  0  0  0  0  0  0  0  0  0  0  0
    6.3279   -1.5326   -1.7760 H   0  0  0  0  0  0  0  0  0  0  0  0
    4.3161   -0.4933   -2.7616 H   0  0  0  0  0  0  0  0  0  0  0  0
    1.3551   -0.8053   -2.3007 H   0  0  0  0  0  0  0  0  0  0  0  0
    0.6741    1.4583   -2.0687 H   0  0  0  0  0  0  0  0  0  0  0  0
   -1.5353   -2.9609    1.8216 H   0  0  0  0  0  0  0  0  0  0  0  0
   -1.1976   -3.2250    0.1274 H   0  0  0  0  0  0  0  0  0  0  0  0
   -2.4769   -2.4099   -1.5579 H   0  0  0  0  0  0  0  0  0  0  0  0
   -4.1102   -2.0300   -1.1296 H   0  0  0  0  0  0  0  0  0  0  0  0
   -3.5699   -0.1596   -2.3285 H   0  0  0  0  0  0  0  0  0  0  0  0
   -1.8991   -0.1147   -1.8207 H   0  0  0  0  0  0  0  0  0  0  0  0
   -4.3124    1.0110    1.4027 H   0  0  0  0  0  0  0  0  0  0  0  0
   -5.0778   -0.1097    0.2872 H   0  0  0  0  0  0  0  0  0  0  0  0
   -4.1550   -1.4530    2.0358 H   0  0  0  0  0  0  0  0  0  0  0  0
   -2.6585   -0.5724    2.0741 H   0  0  0  0  0  0  0  0  0  0  0  0
   -3.9017    3.3937   -1.1749 H   0  0  0  0  0  0  0  0  0  0  0  0
   -2.1400    5.1456   -0.0941 H   0  0  0  0  0  0  0  0  0  0  0  0
   -0.3083    3.6442    1.2165 H   0  0  0  0  0  0  0  0  0  0  0  0
  1  2  2  3
  2  3  1  0
  3  4  2  3
  4  5  1  0
  5  6  2  3
  6  7  1  0
  7  8  1  0
  8  9  1  0
  9 10  1  0
 10 11  2  0
 11 12  1  0
 12 13  2  0
 13 14  1  0
 14 15  2  0
 15 16  1  0
 16 17  2  3
  7 18  1  0
 18 19  1  0
 19 20  1  0
 20 21  1  0
 21 22  1  0
 22 23  1  0
 23 24  1  0
 22 25  1  0
 25 26  2  0
 26 27  1  0
 27 28  2  0
 28 29  1  0
 17  1  1  0
 24 19  1  0
 29 25  1  0
 29  5  1  0
 15 10  1  0
  1 30  1  0
  2 31  1  0
  3 32  1  0
  8 33  1  0
  8 34  1  0
 11 35  1  0
 12 36  1  0
 13 37  1  0
 14 38  1  0
 16 39  1  0
 17 40  1  0
 18 41  1  0
 18 42  1  0
 20 43  1  0
 20 44  1  0
 21 45  1  0
 21 46  1  0
 23 47  1  0
 23 48  1  0
 24 49  1  0
 24 50  1  0
 26 51  1  0
 27 52  1  0
 28 53  1  0
M  END
>  <candidate_id>  (45) 
CAND_f169596727

>  <source_generator>  (45) 
selfies

>  <parent_mol_id>  (45) 
JAK2_364f20ca75

>  <canonical_smiles>  (45) 
C1=CC=NC2=NN(COc3ccccc3C=C1)CN1CCN(CC1)c1cccn12

>  <inchikey>  (45) 
KNTXXDINTXSOMA-UHFFFAOYSA-N

>  <valid_rdkit>  (45) 
True

>  <unique_flag>  (45) 
True

>  <novel_flag>  (45) 
True

>  <mw>  (45) 
388.475

>  <logp>  (45) 
2.6926

>  <tpsa>  (45) 
48.6

>  <hbd>  (45) 
0

>  <hba>  (45) 
6

>  <rotatable_bonds>  (45) 
0

>  <qed>  (45) 
0.6963

>  <sa_score>  (45) 
3.614

>  <murcko_scaffold>  (45) 
C1=CC=NC2=NN(COc3ccccc3C=C1)CN1CCN(CC1)c1cccn12

>  <max_ring_size>  (45) 
13

>  <has_macrocycle_12_20>  (45) 
True

>  <has_constrained_ring_8_11>  (45) 
False

>  <passes_basic_filters>  (45) 
True

>  <generation_notes>  (45) 
selfies_token_mutation

>  <best_score>  (45) 
nan

>  <qed_admet>  (45) 
0.6963

>  <sa_score_admet>  (45) 
3.614

>  <mw_admet>  (45) 
388.475

>  <logp_admet>  (45) 
2.6926

>  <tpsa_admet>  (45) 
48.6

>  <hbd_admet>  (45) 
0

>  <hba_admet>  (45) 
6

>  <rotatable_bonds_admet>  (45) 
0

>  <lipinski_violations>  (45) 
0

>  <veber_pass>  (45) 
True

>  <admet_score>  (45) 
0.863335

>  <synthesis_score>  (45) 
0.709556

>  <safety_proxy_score>  (45) 
1.0

>  <main_risk>  (45) 
no_major_descriptor_risk

>  <pose_score>  (45) 
0.5

>  <pose_decision>  (45) 
nan

>  <contacts_within_4A>  (45) 
nan

>  <hard_clashes_lt_1_8A>  (45) 
nan

>  <smiles>  (45) 
C1=CC=NC2=NN(COc3ccccc3C=C1)CN1CCN(CC1)c1cccn12

>  <docking_score>  (45) 
nan

>  <diversity_cluster>  (45) 
scaffold_f1695967

>  <docking_score_scaled>  (45) 
0.0

>  <novelty_score>  (45) 
1.0

>  <final_weighted_score>  (45) 
0.5041

>  <rank>  (45) 
901

>  <decision>  (45) 
await_docking

>  <diverse_rank>  (45) 
617

>  <selection_tier>  (45) 
await_docking

$$$$
CAND_bc25cf8d1d
     RDKit          3D

 61 64  0  0  0  0  0  0  0  0999 V2000
   -3.9374    1.5218    2.5539 C   0  0  0  0  0  0  0  0  0  0  0  0
   -4.1367    0.8588    1.3132 O   0  0  0  0  0  0  0  0  0  0  0  0
   -4.5323    1.6294    0.2490 C   0  0  0  0  0  0  0  0  0  0  0  0
   -5.1032    2.9015    0.3757 C   0  0  0  0  0  0  0  0  0  0  0  0
   -5.5162    3.6097   -0.7562 C   0  0  0  0  0  0  0  0  0  0  0  0
   -5.3721    3.0514   -2.0227 C   0  0  0  0  0  0  0  0  0  0  0  0
   -4.8110    1.7826   -2.1610 C   0  0  0  0  0  0  0  0  0  0  0  0
   -4.3816    1.0638   -1.0341 C   0  0  0  0  0  0  0  0  0  0  0  0
   -3.7818   -0.2608   -1.2384 C   0  0  0  0  0  0  0  0  0  0  0  0
   -4.3744   -1.4066   -1.7400 C   0  0  0  0  0  0  0  0  0  0  0  0
   -3.4051   -2.4314   -1.7434 C   0  0  0  0  0  0  0  0  0  0  0  0
   -2.2143   -1.8933   -1.2887 C   0  0  0  0  0  0  0  0  0  0  0  0
   -2.4636   -0.5672   -0.9408 N   0  0  0  0  0  0  0  0  0  0  0  0
   -1.5530    0.3432   -0.4129 N   0  0  0  0  0  0  0  0  0  0  0  0
   -0.5834    0.0064    0.4958 C   0  0  0  0  0  0  0  0  0  0  0  0
    0.5465    0.6580    0.8178 C   0  0  0  0  0  0  0  0  0  0  0  0
    0.7422    1.8961    0.3070 F   0  0  0  0  0  0  0  0  0  0  0  0
    1.7277   -0.0641    1.3437 C   0  0  0  0  0  0  0  0  0  0  0  0
    2.9599    0.1678    0.6922 N   0  0  0  0  0  0  0  0  0  0  0  0
    4.2651    0.0163    1.3728 C   0  0  0  0  0  0  0  0  0  0  0  0
    5.2977    1.0290    0.8294 C   0  0  0  0  0  0  0  0  0  0  0  0
    5.6011    0.8506   -0.6082 N   0  0  0  0  0  0  0  0  0  0  0  0
    6.0988    2.0966   -1.1842 C   0  0  0  0  0  0  0  0  0  0  0  0
    4.4205    0.3389   -1.3373 C   0  0  0  0  0  0  0  0  0  0  0  0
    3.0547    0.6751   -0.6964 C   0  0  0  0  0  0  0  0  0  0  0  0
    1.5258   -1.0305    2.2767 C   0  0  0  0  0  0  0  0  0  0  0  0
    2.3217   -2.2517    2.3175 C   0  0  0  0  0  0  0  0  0  0  0  0
    1.9593   -3.3280    1.5945 C   0  0  0  0  0  0  0  0  0  0  0  0
    0.7535   -3.4978    0.9660 N   0  0  0  0  0  0  0  0  0  0  0  0
    0.4208   -4.1971   -0.2476 C   0  0  0  0  0  0  0  0  0  0  0  0
   -0.9149   -3.7992   -0.7101 N   0  0  0  0  0  0  0  0  0  0  0  0
   -0.9520   -2.5681   -1.1020 C   0  0  0  0  0  0  0  0  0  0  0  0
   -3.2710    2.3842    2.4460 H   0  0  0  0  0  0  0  0  0  0  0  0
   -3.4570    0.8145    3.2368 H   0  0  0  0  0  0  0  0  0  0  0  0
   -4.8944    1.8143    2.9976 H   0  0  0  0  0  0  0  0  0  0  0  0
   -5.2564    3.3622    1.3458 H   0  0  0  0  0  0  0  0  0  0  0  0
   -5.9614    4.5955   -0.6454 H   0  0  0  0  0  0  0  0  0  0  0  0
   -5.7002    3.5998   -2.9019 H   0  0  0  0  0  0  0  0  0  0  0  0
   -4.7040    1.3548   -3.1555 H   0  0  0  0  0  0  0  0  0  0  0  0
   -5.4092   -1.4945   -2.0462 H   0  0  0  0  0  0  0  0  0  0  0  0
   -3.5460   -3.4604   -2.0512 H   0  0  0  0  0  0  0  0  0  0  0  0
   -1.5309    1.2612   -0.8433 H   0  0  0  0  0  0  0  0  0  0  0  0
   -0.7353   -0.9924    0.8871 H   0  0  0  0  0  0  0  0  0  0  0  0
    4.6416   -1.0031    1.2275 H   0  0  0  0  0  0  0  0  0  0  0  0
    4.1539    0.1891    2.4500 H   0  0  0  0  0  0  0  0  0  0  0  0
    6.2303    0.9305    1.3969 H   0  0  0  0  0  0  0  0  0  0  0  0
    4.9077    2.0387    1.0191 H   0  0  0  0  0  0  0  0  0  0  0  0
    6.9792    2.4495   -0.6357 H   0  0  0  0  0  0  0  0  0  0  0  0
    6.4179    1.9384   -2.2204 H   0  0  0  0  0  0  0  0  0  0  0  0
    5.3429    2.8905   -1.1745 H   0  0  0  0  0  0  0  0  0  0  0  0
    4.4278    0.6692   -2.3836 H   0  0  0  0  0  0  0  0  0  0  0  0
    4.5174   -0.7544   -1.3742 H   0  0  0  0  0  0  0  0  0  0  0  0
    2.2700    0.2223   -1.3144 H   0  0  0  0  0  0  0  0  0  0  0  0
    2.9099    1.7618   -0.7017 H   0  0  0  0  0  0  0  0  0  0  0  0
    0.5630   -1.1296    2.7744 H   0  0  0  0  0  0  0  0  0  0  0  0
    3.2801   -2.2208    2.8223 H   0  0  0  0  0  0  0  0  0  0  0  0
    2.6400   -4.1677    1.4755 H   0  0  0  0  0  0  0  0  0  0  0  0
   -0.0318   -3.0021    1.3686 H   0  0  0  0  0  0  0  0  0  0  0  0
    0.4131   -5.2752   -0.0559 H   0  0  0  0  0  0  0  0  0  0  0  0
    1.1715   -4.0134   -1.0267 H   0  0  0  0  0  0  0  0  0  0  0  0
   -0.0310   -1.9639   -1.1984 H   0  0  0  0  0  0  0  0  0  0  0  0
  1  2  1  0
  2  3  1  0
  3  4  2  0
  4  5  1  0
  5  6  2  0
  6  7  1  0
  7  8  2  0
  8  9  1  0
  9 10  2  0
 10 11  1  0
 11 12  2  0
 12 13  1  0
 13 14  1  0
 14 15  1  0
 15 16  2  3
 16 17  1  0
 16 18  1  0
 18 19  1  0
 19 20  1  0
 20 21  1  0
 21 22  1  0
 22 23  1  0
 22 24  1  0
 24 25  1  0
 18 26  2  3
 26 27  1  0
 27 28  2  3
 28 29  1  0
 29 30  1  0
 30 31  1  0
 31 32  2  3
  8  3  1  0
 13  9  1  0
 25 19  1  0
 32 12  1  0
  1 33  1  0
  1 34  1  0
  1 35  1  0
  4 36  1  0
  5 37  1  0
  6 38  1  0
  7 39  1  0
 10 40  1  0
 11 41  1  0
 14 42  1  0
 15 43  1  0
 20 44  1  0
 20 45  1  0
 21 46  1  0
 21 47  1  0
 23 48  1  0
 23 49  1  0
 23 50  1  0
 24 51  1  0
 24 52  1  0
 25 53  1  0
 25 54  1  0
 26 55  1  0
 27 56  1  0
 28 57  1  0
 29 58  1  0
 30 59  1  0
 30 60  1  0
 32 61  1  0
M  END
>  <candidate_id>  (46) 
CAND_bc25cf8d1d

>  <source_generator>  (46) 
selfies

>  <parent_mol_id>  (46) 
JAK2_364f20ca75

>  <canonical_smiles>  (46) 
COc1ccccc1-c1ccc2n1NC=C(F)C(N1CCN(C)CC1)=CC=CNCN=C2

>  <inchikey>  (46) 
OKJWFRLOABWWJB-UHFFFAOYSA-N

>  <valid_rdkit>  (46) 
True

>  <unique_flag>  (46) 
True

>  <novel_flag>  (46) 
True

>  <mw>  (46) 
436.535

>  <logp>  (46) 
3.1427

>  <tpsa>  (46) 
57.06

>  <hbd>  (46) 
2

>  <hba>  (46) 
6

>  <rotatable_bonds>  (46) 
3

>  <qed>  (46) 
0.7744

>  <sa_score>  (46) 
4.056

>  <murcko_scaffold>  (46) 
C1=CNCN=Cc2ccc(-c3ccccc3)n2NC=CC(N2CCNCC2)=C1

>  <max_ring_size>  (46) 
13

>  <has_macrocycle_12_20>  (46) 
True

>  <has_constrained_ring_8_11>  (46) 
False

>  <passes_basic_filters>  (46) 
True

>  <generation_notes>  (46) 
selfies_token_mutation

>  <best_score>  (46) 
nan

>  <qed_admet>  (46) 
0.7744

>  <sa_score_admet>  (46) 
4.056

>  <mw_admet>  (46) 
436.535

>  <logp_admet>  (46) 
3.1427

>  <tpsa_admet>  (46) 
57.06

>  <hbd_admet>  (46) 
2

>  <hba_admet>  (46) 
6

>  <rotatable_bonds_admet>  (46) 
3

>  <lipinski_violations>  (46) 
0

>  <veber_pass>  (46) 
True

>  <admet_score>  (46) 
0.89848

>  <synthesis_score>  (46) 
0.660444

>  <safety_proxy_score>  (46) 
1.0

>  <main_risk>  (46) 
no_major_descriptor_risk

>  <pose_score>  (46) 
0.5

>  <pose_decision>  (46) 
nan

>  <contacts_within_4A>  (46) 
nan

>  <hard_clashes_lt_1_8A>  (46) 
nan

>  <smiles>  (46) 
COc1ccccc1-c1ccc2n1NC=C(F)C(N1CCN(C)CC1)=CC=CNCN=C2

>  <docking_score>  (46) 
nan

>  <diversity_cluster>  (46) 
scaffold_1c1180d4

>  <docking_score_scaled>  (46) 
0.0

>  <novelty_score>  (46) 
1.0

>  <final_weighted_score>  (46) 
0.503763

>  <rank>  (46) 
911

>  <decision>  (46) 
await_docking

>  <diverse_rank>  (46) 
626

>  <selection_tier>  (46) 
await_docking

$$$$
CAND_cd1b05bb61
     RDKit          3D

 44 46  0  0  0  0  0  0  0  0999 V2000
   -3.1273   -2.9387   -0.1347 C   0  0  0  0  0  0  0  0  0  0  0  0
   -2.6870   -2.0306   -1.1363 O   0  0  0  0  0  0  0  0  0  0  0  0
   -2.5639   -0.7098   -0.7821 C   0  0  0  0  0  0  0  0  0  0  0  0
   -2.6521   -0.2328    0.5226 C   0  0  0  0  0  0  0  0  0  0  0  0
   -2.2951    1.0971    0.7809 C   0  0  0  0  0  0  0  0  0  0  0  0
   -2.2234    2.0193   -0.2726 C   0  0  0  0  0  0  0  0  0  0  0  0
   -2.1261    1.5503   -1.5766 C   0  0  0  0  0  0  0  0  0  0  0  0
   -2.1467    0.1731   -1.8002 C   0  0  0  0  0  0  0  0  0  0  0  0
   -1.5399   -0.3785   -3.0148 C   0  0  0  0  0  0  0  0  0  0  0  0
   -0.2514   -0.2791   -3.3901 C   0  0  0  0  0  0  0  0  0  0  0  0
    0.8869    0.4754   -2.8897 C   0  0  0  0  0  0  0  0  0  0  0  0
    1.4228    0.7341   -1.6849 C   0  0  0  0  0  0  0  0  0  0  0  0
    0.9687    0.3865   -0.3153 C   0  0  0  0  0  0  0  0  0  0  0  0
    0.4004    1.2857    0.4063 N   0  0  0  0  0  0  0  0  0  0  0  0
   -0.1236    0.9379    1.7175 C   0  0  0  0  0  0  0  0  0  0  0  0
    0.6363    1.5973    2.7302 N   0  0  0  0  0  0  0  0  0  0  0  0
    2.0034    1.7057    2.7381 C   0  0  0  0  0  0  0  0  0  0  0  0
    2.9948    0.8926    2.3531 C   0  0  0  0  0  0  0  0  0  0  0  0
    3.0187   -0.5007    1.9702 C   0  0  0  0  0  0  0  0  0  0  0  0
    2.3754   -1.2976    1.1014 C   0  0  0  0  0  0  0  0  0  0  0  0
    2.7857   -2.6620    1.0994 O   0  0  0  0  0  0  0  0  0  0  0  0
    3.3872   -3.0021   -0.0800 C   0  0  0  0  0  0  0  0  0  0  0  0
    3.7560   -2.2555   -0.9758 O   0  0  0  0  0  0  0  0  0  0  0  0
    1.2460   -1.0158    0.1513 C   0  0  0  0  0  0  0  0  0  0  0  0
    0.5059   -1.9975   -0.2781 N   0  0  0  0  0  0  0  0  0  0  0  0
   -1.5125    1.3648    1.9401 N   0  0  0  0  0  0  0  0  0  0  0  0
   -2.3687   -3.0585    0.6454 H   0  0  0  0  0  0  0  0  0  0  0  0
   -3.2719   -3.9141   -0.6091 H   0  0  0  0  0  0  0  0  0  0  0  0
   -4.0881   -2.6293    0.2901 H   0  0  0  0  0  0  0  0  0  0  0  0
   -2.7611   -0.9136    1.3590 H   0  0  0  0  0  0  0  0  0  0  0  0
   -1.9664    3.0559   -0.0655 H   0  0  0  0  0  0  0  0  0  0  0  0
   -1.8491    2.2401   -2.3690 H   0  0  0  0  0  0  0  0  0  0  0  0
   -2.2092   -1.0075   -3.5999 H   0  0  0  0  0  0  0  0  0  0  0  0
   -0.0008   -0.8082   -4.3137 H   0  0  0  0  0  0  0  0  0  0  0  0
    1.4602    0.8845   -3.7273 H   0  0  0  0  0  0  0  0  0  0  0  0
    2.3172    1.3540   -1.6535 H   0  0  0  0  0  0  0  0  0  0  0  0
   -0.0997   -0.1370    1.9260 H   0  0  0  0  0  0  0  0  0  0  0  0
    0.1306    2.4177    3.0449 H   0  0  0  0  0  0  0  0  0  0  0  0
    2.2910    2.6889    3.1140 H   0  0  0  0  0  0  0  0  0  0  0  0
    4.0020    1.2982    2.4762 H   0  0  0  0  0  0  0  0  0  0  0  0
    3.8121   -1.0050    2.5311 H   0  0  0  0  0  0  0  0  0  0  0  0
    3.5384   -4.0930   -0.0866 H   0  0  0  0  0  0  0  0  0  0  0  0
   -0.2033   -1.6434   -0.9361 H   0  0  0  0  0  0  0  0  0  0  0  0
   -1.8724    0.9601    2.7941 H   0  0  0  0  0  0  0  0  0  0  0  0
  1  2  1  0
  2  3  1  0
  3  4  2  0
  4  5  1  0
  5  6  2  0
  6  7  1  0
  7  8  2  0
  8  9  1  0
  9 10  2  3
 10 11  1  0
 11 12  2  3
 12 13  1  0
 13 14  2  3
 14 15  1  0
 15 16  1  0
 16 17  1  0
 17 18  2  3
 18 19  1  0
 19 20  2  3
 20 21  1  0
 21 22  1  0
 22 23  2  0
 20 24  1  0
 24 25  2  3
 15 26  1  0
  8  3  1  0
 24 13  1  0
 26  5  1  0
  1 27  1  0
  1 28  1  0
  1 29  1  0
  4 30  1  0
  6 31  1  0
  7 32  1  0
  9 33  1  0
 10 34  1  0
 11 35  1  0
 12 36  1  0
 15 37  1  0
 16 38  1  0
 17 39  1  0
 18 40  1  0
 19 41  1  0
 22 42  1  0
 25 43  1  0
 26 44  1  0
M  END
>  <candidate_id>  (47) 
CAND_cd1b05bb61

>  <source_generator>  (47) 
selfies

>  <parent_mol_id>  (47) 
JAK2_94bd16fd4f

>  <canonical_smiles>  (47) 
COc1cc2ccc1C=CC=CC1=NC(NC=CC=C(OC=O)C1=N)N2

>  <inchikey>  (47) 
SUNVTMGJQPQNIF-UHFFFAOYSA-N

>  <valid_rdkit>  (47) 
True

>  <unique_flag>  (47) 
True

>  <novel_flag>  (47) 
True

>  <mw>  (47) 
350.378

>  <logp>  (47) 
2.6083

>  <tpsa>  (47) 
95.8

>  <hbd>  (47) 
3

>  <hba>  (47) 
7

>  <rotatable_bonds>  (47) 
3

>  <qed>  (47) 
0.7284

>  <sa_score>  (47) 
3.827

>  <murcko_scaffold>  (47) 
N=C1C=CC=CNC2N=C1C=CC=Cc1ccc(cc1)N2

>  <max_ring_size>  (47) 
12

>  <has_macrocycle_12_20>  (47) 
True

>  <has_constrained_ring_8_11>  (47) 
False

>  <passes_basic_filters>  (47) 
True

>  <generation_notes>  (47) 
selfies_token_mutation

>  <best_score>  (47) 
nan

>  <qed_admet>  (47) 
0.7284

>  <sa_score_admet>  (47) 
3.827

>  <mw_admet>  (47) 
350.378

>  <logp_admet>  (47) 
2.6083

>  <tpsa_admet>  (47) 
95.8

>  <hbd_admet>  (47) 
3

>  <hba_admet>  (47) 
7

>  <rotatable_bonds_admet>  (47) 
3

>  <lipinski_violations>  (47) 
0

>  <veber_pass>  (47) 
True

>  <admet_score>  (47) 
0.87778

>  <synthesis_score>  (47) 
0.685889

>  <safety_proxy_score>  (47) 
1.0

>  <main_risk>  (47) 
no_major_descriptor_risk

>  <pose_score>  (47) 
0.5

>  <pose_decision>  (47) 
nan

>  <contacts_within_4A>  (47) 
nan

>  <hard_clashes_lt_1_8A>  (47) 
nan

>  <smiles>  (47) 
COc1cc2ccc1C=CC=CC1=NC(NC=CC=C(OC=O)C1=N)N2

>  <docking_score>  (47) 
nan

>  <diversity_cluster>  (47) 
scaffold_9f680e15

>  <docking_score_scaled>  (47) 
0.0

>  <novelty_score>  (47) 
1.0

>  <final_weighted_score>  (47) 
0.503439

>  <rank>  (47) 
920

>  <decision>  (47) 
await_docking

>  <diverse_rank>  (47) 
633

>  <selection_tier>  (47) 
await_docking

$$$$
CAND_fd6b88bd62
     RDKit          3D

 40 41  0  0  0  0  0  0  0  0999 V2000
    5.0142    1.3801   -0.0415 N   0  0  0  0  0  0  0  0  0  0  0  0
    3.9845    0.7058    0.3450 C   0  0  0  0  0  0  0  0  0  0  0  0
    3.3239   -0.0112   -0.6225 N   0  0  0  0  0  0  0  0  0  0  0  0
    3.3350   -1.2880   -0.4207 C   0  0  0  0  0  0  0  0  0  0  0  0
    2.5227   -2.2103   -1.2338 C   0  0  0  0  0  0  0  0  0  0  0  0
    1.2149   -2.3649   -0.9722 C   0  0  0  0  0  0  0  0  0  0  0  0
    0.4562   -1.7076    0.0979 C   0  0  0  0  0  0  0  0  0  0  0  0
   -0.4289   -0.5972   -0.2497 C   0  0  0  0  0  0  0  0  0  0  0  0
   -1.6623   -0.3921    0.2424 C   0  0  0  0  0  0  0  0  0  0  0  0
   -2.5922    0.7325   -0.1022 C   0  0  1  0  0  0  0  0  0  0  0  0
   -2.2367    1.5994   -1.3053 C   0  0  0  0  0  0  0  0  0  0  0  0
   -3.5579    2.2543   -1.6775 C   0  0  0  0  0  0  0  0  0  0  0  0
   -4.6260    1.3486   -1.0805 C   0  0  0  0  0  0  0  0  0  0  0  0
   -3.9086    0.2182   -0.4894 N   0  0  0  0  0  0  0  0  0  0  0  0
    0.7010   -2.1166    1.3637 C   0  0  0  0  0  0  0  0  0  0  0  0
    0.1787   -1.6096    2.6168 C   0  0  0  0  0  0  0  0  0  0  0  0
    0.5384   -0.5028    3.2847 C   0  0  0  0  0  0  0  0  0  0  0  0
    1.4328    0.5001    3.0268 N   0  0  0  0  0  0  0  0  0  0  0  0
    2.0969    0.6724    1.8358 N   0  0  0  0  0  0  0  0  0  0  0  0
    3.4750    0.7612    1.8056 C   0  0  0  0  0  0  0  0  0  0  0  0
    4.2260    0.8207    2.7655 O   0  0  0  0  0  0  0  0  0  0  0  0
    5.1009    1.1974   -1.0467 H   0  0  0  0  0  0  0  0  0  0  0  0
    3.9222   -1.7685    0.3849 H   0  0  0  0  0  0  0  0  0  0  0  0
    3.0224   -2.7454   -2.0310 H   0  0  0  0  0  0  0  0  0  0  0  0
    0.6249   -3.0299   -1.6013 H   0  0  0  0  0  0  0  0  0  0  0  0
   -0.0325    0.0698   -1.0134 H   0  0  0  0  0  0  0  0  0  0  0  0
   -2.0539   -1.0908    0.9783 H   0  0  0  0  0  0  0  0  0  0  0  0
   -2.7028    1.3677    0.7873 H   0  0  0  0  0  0  0  0  0  0  0  0
   -1.4661    2.3423   -1.0748 H   0  0  0  0  0  0  0  0  0  0  0  0
   -1.8851    0.9970   -2.1530 H   0  0  0  0  0  0  0  0  0  0  0  0
   -3.6245    3.2574   -1.2414 H   0  0  0  0  0  0  0  0  0  0  0  0
   -3.6573    2.3490   -2.7636 H   0  0  0  0  0  0  0  0  0  0  0  0
   -5.3342    1.0020   -1.8389 H   0  0  0  0  0  0  0  0  0  0  0  0
   -5.1904    1.8878   -0.3110 H   0  0  0  0  0  0  0  0  0  0  0  0
   -4.4096   -0.1296    0.3253 H   0  0  0  0  0  0  0  0  0  0  0  0
    1.3597   -2.9725    1.5187 H   0  0  0  0  0  0  0  0  0  0  0  0
   -0.5332   -2.2793    3.0978 H   0  0  0  0  0  0  0  0  0  0  0  0
    0.0768   -0.3428    4.2589 H   0  0  0  0  0  0  0  0  0  0  0  0
    1.7426    1.0858    3.8054 H   0  0  0  0  0  0  0  0  0  0  0  0
    1.5526    0.6095    0.9806 H   0  0  0  0  0  0  0  0  0  0  0  0
  1  2  2  3
  2  3  1  0
  3  4  2  3
  4  5  1  0
  5  6  2  3
  6  7  1  0
  7  8  1  0
  8  9  2  3
  9 10  1  0
 10 11  1  0
 11 12  1  0
 12 13  1  0
 13 14  1  0
  7 15  2  3
 15 16  1  0
 16 17  2  3
 17 18  1  0
 18 19  1  0
 19 20  1  0
 20 21  2  0
 20  2  1  0
 14 10  1  0
  1 22  1  0
  4 23  1  0
  5 24  1  0
  6 25  1  0
  8 26  1  0
  9 27  1  0
 10 28  1  1
 11 29  1  0
 11 30  1  0
 12 31  1  0
 12 32  1  0
 13 33  1  0
 13 34  1  0
 14 35  1  0
 15 36  1  0
 16 37  1  0
 17 38  1  0
 18 39  1  0
 19 40  1  0
M  END
>  <candidate_id>  (48) 
CAND_fd6b88bd62

>  <source_generator>  (48) 
selfies

>  <parent_mol_id>  (48) 
JAK2_1509a7bf44

>  <canonical_smiles>  (48) 
N=C1N=CC=CC(C=C[C@H]2CCCN2)=CC=CNNC1=O

>  <inchikey>  (48) 
HKSIDMXJYRCRKO-CYBMUJFWSA-N

>  <valid_rdkit>  (48) 
True

>  <unique_flag>  (48) 
True

>  <novel_flag>  (48) 
True

>  <mw>  (48) 
285.351

>  <logp>  (48) 
0.9734

>  <tpsa>  (48) 
89.37

>  <hbd>  (48) 
4

>  <hba>  (48) 
4

>  <rotatable_bonds>  (48) 
2

>  <qed>  (48) 
0.6094

>  <sa_score>  (48) 
3.2

>  <murcko_scaffold>  (48) 
N=C1N=CC=CC(C=C[C@H]2CCCN2)=CC=CNNC1=O

>  <max_ring_size>  (48) 
12

>  <has_macrocycle_12_20>  (48) 
True

>  <has_constrained_ring_8_11>  (48) 
False

>  <passes_basic_filters>  (48) 
True

>  <generation_notes>  (48) 
selfies_token_mutation

>  <best_score>  (48) 
nan

>  <qed_admet>  (48) 
0.6094

>  <sa_score_admet>  (48) 
3.2

>  <mw_admet>  (48) 
285.351

>  <logp_admet>  (48) 
0.9734

>  <tpsa_admet>  (48) 
89.37

>  <hbd_admet>  (48) 
4

>  <hba_admet>  (48) 
4

>  <rotatable_bonds_admet>  (48) 
2

>  <lipinski_violations>  (48) 
0

>  <veber_pass>  (48) 
True

>  <admet_score>  (48) 
0.82423

>  <synthesis_score>  (48) 
0.755556

>  <safety_proxy_score>  (48) 
1.0

>  <main_risk>  (48) 
no_major_descriptor_risk

>  <pose_score>  (48) 
0.5

>  <pose_decision>  (48) 
nan

>  <contacts_within_4A>  (48) 
nan

>  <hard_clashes_lt_1_8A>  (48) 
nan

>  <smiles>  (48) 
N=C1N=CC=CC(C=C[C@H]2CCCN2)=CC=CNNC1=O

>  <docking_score>  (48) 
nan

>  <diversity_cluster>  (48) 
scaffold_fd6b88bd

>  <docking_score_scaled>  (48) 
0.0

>  <novelty_score>  (48) 
1.0

>  <final_weighted_score>  (48) 
0.503179

>  <rank>  (48) 
929

>  <decision>  (48) 
await_docking

>  <diverse_rank>  (48) 
637

>  <selection_tier>  (48) 
await_docking

$$$$
CAND_ab5598f4f0
     RDKit          3D

 35 37  0  0  0  0  0  0  0  0999 V2000
    5.7431    0.5725   -0.6532 Cl  0  0  0  0  0  0  0  0  0  0  0  0
    4.2076   -0.1786   -0.1547 C   0  0  0  0  0  0  0  0  0  0  0  0
    3.7541    0.3639    1.1986 C   0  0  0  0  0  0  0  0  0  0  0  0
    2.5702   -0.3291    1.6861 N   0  0  0  0  0  0  0  0  0  0  0  0
    1.2641   -0.1357    1.3116 C   0  0  0  0  0  0  0  0  0  0  0  0
    0.9481    0.7553    0.3826 C   0  0  0  0  0  0  0  0  0  0  0  0
    0.8057    1.5780   -0.4487 N   0  0  0  0  0  0  0  0  0  0  0  0
   -0.4185    1.8198   -1.0513 N   0  0  0  0  0  0  0  0  0  0  0  0
   -0.5197    2.9178   -1.8915 C   0  0  0  0  0  0  0  0  0  0  0  0
   -1.7911    3.0232   -2.3978 C   0  0  0  0  0  0  0  0  0  0  0  0
   -2.5233    1.9406   -1.8814 C   0  0  0  0  0  0  0  0  0  0  0  0
   -1.6772    1.1940   -1.0765 C   0  0  0  0  0  0  0  0  0  0  0  0
   -1.9845   -0.0471   -0.3431 C   0  0  0  0  0  0  0  0  0  0  0  0
   -2.5615   -1.2850   -0.9794 C   0  0  0  0  0  0  0  0  0  0  0  0
   -2.7357   -2.3266   -0.1370 C   0  0  0  0  0  0  0  0  0  0  0  0
   -2.2796   -1.9911    1.2743 C   0  0  0  0  0  0  0  0  0  0  0  0
   -2.6293   -0.8437    1.8254 N   0  0  0  0  0  0  0  0  0  0  0  0
   -2.8104    0.1532    0.8784 N   0  0  0  0  0  0  0  0  0  0  0  0
   -1.1760   -2.6640    1.7901 N   0  0  0  0  0  0  0  0  0  0  0  0
    0.0642   -2.0262    1.8266 C   0  0  0  0  0  0  0  0  0  0  0  0
    0.1874   -0.7378    1.8816 N   0  0  0  0  0  0  0  0  0  0  0  0
    4.3676   -1.2606   -0.1084 H   0  0  0  0  0  0  0  0  0  0  0  0
    3.4706    0.0212   -0.9376 H   0  0  0  0  0  0  0  0  0  0  0  0
    3.5733    1.4443    1.1475 H   0  0  0  0  0  0  0  0  0  0  0  0
    4.5534    0.2169    1.9349 H   0  0  0  0  0  0  0  0  0  0  0  0
    2.6672   -0.8581    2.5465 H   0  0  0  0  0  0  0  0  0  0  0  0
    0.3495    3.5441   -2.0377 H   0  0  0  0  0  0  0  0  0  0  0  0
   -2.1460    3.7972   -3.0657 H   0  0  0  0  0  0  0  0  0  0  0  0
   -3.5648    1.7112   -2.0726 H   0  0  0  0  0  0  0  0  0  0  0  0
   -1.0010   -0.4067   -0.0774 H   0  0  0  0  0  0  0  0  0  0  0  0
   -2.7911   -1.3264   -2.0344 H   0  0  0  0  0  0  0  0  0  0  0  0
   -3.1021   -3.3060   -0.3942 H   0  0  0  0  0  0  0  0  0  0  0  0
   -2.5537    1.0444    1.3057 H   0  0  0  0  0  0  0  0  0  0  0  0
   -1.1503   -3.6591    1.6226 H   0  0  0  0  0  0  0  0  0  0  0  0
    0.8896   -2.7157    1.5732 H   0  0  0  0  0  0  0  0  0  0  0  0
  1  2  1  0
  2  3  1  0
  3  4  1  0
  4  5  1  0
  5  6  2  0
  6  7  2  0
  7  8  1  0
  8  9  1  0
  9 10  2  0
 10 11  1  0
 11 12  2  0
 12 13  1  0
 13 14  1  0
 14 15  2  0
 15 16  1  0
 16 17  2  0
 17 18  1  0
 16 19  1  0
 19 20  1  0
 20 21  2  3
 21  5  1  0
 12  8  1  0
 18 13  1  0
  2 22  1  0
  2 23  1  0
  3 24  1  0
  3 25  1  0
  4 26  1  0
  9 27  1  0
 10 28  1  0
 11 29  1  0
 13 30  1  0
 14 31  1  0
 15 32  1  0
 18 33  1  0
 19 34  1  0
 20 35  1  0
M  END
>  <candidate_id>  (49) 
CAND_ab5598f4f0

>  <source_generator>  (49) 
selfies

>  <parent_mol_id>  (49) 
JAK2_725776d8f2

>  <canonical_smiles>  (49) 
ClCCNC1=C=Nn2cccc2C2C=CC(=NN2)NC=N1

>  <inchikey>  (49) 
JQBNMSJHQZTBDY-UHFFFAOYSA-N

>  <valid_rdkit>  (49) 
True

>  <unique_flag>  (49) 
True

>  <novel_flag>  (49) 
True

>  <mw>  (49) 
303.757

>  <logp>  (49) 
0.7362

>  <tpsa>  (49) 
78.1

>  <hbd>  (49) 
3

>  <hba>  (49) 
6

>  <rotatable_bonds>  (49) 
3

>  <qed>  (49) 
0.7207

>  <sa_score>  (49) 
3.825

>  <murcko_scaffold>  (49) 
C1=CN=CNC2=NNC(C=C2)c2cccn2N=1

>  <max_ring_size>  (49) 
12

>  <has_macrocycle_12_20>  (49) 
True

>  <has_constrained_ring_8_11>  (49) 
False

>  <passes_basic_filters>  (49) 
True

>  <generation_notes>  (49) 
selfies_token_mutation

>  <best_score>  (49) 
nan

>  <qed_admet>  (49) 
0.7207

>  <sa_score_admet>  (49) 
3.825

>  <mw_admet>  (49) 
303.757

>  <logp_admet>  (49) 
0.7362

>  <tpsa_admet>  (49) 
78.1

>  <hbd_admet>  (49) 
3

>  <hba_admet>  (49) 
6

>  <rotatable_bonds_admet>  (49) 
3

>  <lipinski_violations>  (49) 
0

>  <veber_pass>  (49) 
True

>  <admet_score>  (49) 
0.874315

>  <synthesis_score>  (49) 
0.686111

>  <safety_proxy_score>  (49) 
1.0

>  <main_risk>  (49) 
no_major_descriptor_risk

>  <pose_score>  (49) 
0.5

>  <pose_decision>  (49) 
nan

>  <contacts_within_4A>  (49) 
nan

>  <hard_clashes_lt_1_8A>  (49) 
nan

>  <smiles>  (49) 
ClCCNC1=C=Nn2cccc2C2C=CC(=NN2)NC=N1

>  <docking_score>  (49) 
nan

>  <diversity_cluster>  (49) 
scaffold_d9e480f6

>  <docking_score_scaled>  (49) 
0.0

>  <novelty_score>  (49) 
1.0

>  <final_weighted_score>  (49) 
0.50278

>  <rank>  (49) 
955

>  <decision>  (49) 
await_docking

>  <diverse_rank>  (49) 
651

>  <selection_tier>  (49) 
await_docking

$$$$
CAND_164da61b83
     RDKit          3D

 59 61  0  0  0  0  0  0  0  0999 V2000
    1.9765    2.8056   -3.9652 C   0  0  0  0  0  0  0  0  0  0  0  0
    1.6595    1.7177   -3.2502 C   0  0  0  0  0  0  0  0  0  0  0  0
    0.6837    1.6788   -2.1570 C   0  0  0  0  0  0  0  0  0  0  0  0
    0.9162    0.7858   -1.1660 C   0  0  0  0  0  0  0  0  0  0  0  0
    0.1334    0.5288    0.0340 C   0  0  0  0  0  0  0  0  0  0  0  0
    0.6082    0.5007    1.2946 C   0  0  0  0  0  0  0  0  0  0  0  0
    1.8492    0.6888    1.8695 N   0  0  0  0  0  0  0  0  0  0  0  0
    3.0854    1.0004    1.3238 C   0  0  0  0  0  0  0  0  0  0  0  0
    3.3163    1.2243    0.1391 O   0  0  0  0  0  0  0  0  0  0  0  0
    4.2011    1.1576    2.3868 C   0  0  1  0  0  0  0  0  0  0  0  0
    4.1812    0.1765    3.5529 C   0  0  0  0  0  0  0  0  0  0  0  0
    5.6445    0.0131    3.9603 C   0  0  0  0  0  0  0  0  0  0  0  0
    6.4386    0.7991    2.9294 C   0  0  0  0  0  0  0  0  0  0  0  0
    5.5263    0.8814    1.8011 N   0  0  0  0  0  0  0  0  0  0  0  0
   -1.2231    0.3039   -0.1194 N   0  0  0  0  0  0  0  0  0  0  0  0
   -1.5634   -0.6841   -0.8855 C   0  0  0  0  0  0  0  0  0  0  0  0
   -2.9685   -1.2207   -1.0064 C   0  0  0  0  0  0  0  0  0  0  0  0
   -3.1661   -2.5238   -0.5152 N   0  0  0  0  0  0  0  0  0  0  0  0
   -2.2453   -3.1785    0.4424 C   0  0  0  0  0  0  0  0  0  0  0  0
   -3.0415   -3.8050    1.5989 C   0  0  0  0  0  0  0  0  0  0  0  0
   -4.0366   -4.7242    1.1228 O   0  0  0  0  0  0  0  0  0  0  0  0
   -4.9567   -4.0459    0.2526 C   0  0  0  0  0  0  0  0  0  0  0  0
   -4.2346   -3.4424   -0.9604 C   0  0  0  0  0  0  0  0  0  0  0  0
   -3.9101   -0.4703   -1.6119 C   0  0  0  0  0  0  0  0  0  0  0  0
   -3.8313    0.8368   -2.2242 C   0  0  0  0  0  0  0  0  0  0  0  0
   -3.5402    1.9827   -1.5938 C   0  0  0  0  0  0  0  0  0  0  0  0
   -3.5757    3.2086   -2.2085 N   0  0  0  0  0  0  0  0  0  0  0  0
   -2.5399    3.5615   -2.9038 C   0  0  0  0  0  0  0  0  0  0  0  0
   -1.2767    2.8254   -3.1408 C   0  0  0  0  0  0  0  0  0  0  0  0
   -0.4971    2.5346   -2.0913 C   0  0  0  0  0  0  0  0  0  0  0  0
    2.7314    2.7509   -4.7428 H   0  0  0  0  0  0  0  0  0  0  0  0
    1.5210    3.7726   -3.7796 H   0  0  0  0  0  0  0  0  0  0  0  0
    2.1892    0.7903   -3.4635 H   0  0  0  0  0  0  0  0  0  0  0  0
    1.8065    0.1615   -1.2267 H   0  0  0  0  0  0  0  0  0  0  0  0
   -0.1436    0.2962    2.0592 H   0  0  0  0  0  0  0  0  0  0  0  0
    1.8343    0.6003    2.8787 H   0  0  0  0  0  0  0  0  0  0  0  0
    4.1609    2.1912    2.7549 H   0  0  0  0  0  0  0  0  0  0  0  0
    3.7667   -0.7968    3.2629 H   0  0  0  0  0  0  0  0  0  0  0  0
    3.5830    0.5564    4.3881 H   0  0  0  0  0  0  0  0  0  0  0  0
    5.8250    0.3916    4.9717 H   0  0  0  0  0  0  0  0  0  0  0  0
    5.9186   -1.0481    3.9439 H   0  0  0  0  0  0  0  0  0  0  0  0
    6.6770    1.8004    3.3069 H   0  0  0  0  0  0  0  0  0  0  0  0
    7.3737    0.2985    2.6629 H   0  0  0  0  0  0  0  0  0  0  0  0
    5.7777    1.6122    1.1355 H   0  0  0  0  0  0  0  0  0  0  0  0
   -0.8143   -1.3049   -1.4137 H   0  0  0  0  0  0  0  0  0  0  0  0
   -1.6903   -3.9580   -0.0930 H   0  0  0  0  0  0  0  0  0  0  0  0
   -1.5190   -2.4791    0.8680 H   0  0  0  0  0  0  0  0  0  0  0  0
   -3.5317   -3.0309    2.2015 H   0  0  0  0  0  0  0  0  0  0  0  0
   -2.3652   -4.3607    2.2561 H   0  0  0  0  0  0  0  0  0  0  0  0
   -5.4861   -3.2731    0.8228 H   0  0  0  0  0  0  0  0  0  0  0  0
   -5.6953   -4.7807   -0.0828 H   0  0  0  0  0  0  0  0  0  0  0  0
   -4.9671   -2.9641   -1.6155 H   0  0  0  0  0  0  0  0  0  0  0  0
   -3.7649   -4.2465   -1.5404 H   0  0  0  0  0  0  0  0  0  0  0  0
   -4.9102   -0.8814   -1.7181 H   0  0  0  0  0  0  0  0  0  0  0  0
   -4.1308    0.8808   -3.2686 H   0  0  0  0  0  0  0  0  0  0  0  0
   -3.3068    1.9897   -0.5307 H   0  0  0  0  0  0  0  0  0  0  0  0
   -2.5989    4.5257   -3.4372 H   0  0  0  0  0  0  0  0  0  0  0  0
   -1.0656    2.5173   -4.1555 H   0  0  0  0  0  0  0  0  0  0  0  0
   -0.7884    2.8715   -1.0971 H   0  0  0  0  0  0  0  0  0  0  0  0
  1  2  2  0
  2  3  1  0
  3  4  2  3
  4  5  1  0
  5  6  2  3
  6  7  1  0
  7  8  1  0
  8  9  2  0
  8 10  1  0
 10 11  1  0
 11 12  1  0
 12 13  1  0
 13 14  1  0
  5 15  1  0
 15 16  2  3
 16 17  1  0
 17 18  1  0
 18 19  1  0
 19 20  1  0
 20 21  1  0
 21 22  1  0
 22 23  1  0
 17 24  2  3
 24 25  1  0
 25 26  2  3
 26 27  1  0
 27 28  2  3
 28 29  1  0
 29 30  2  3
 30  3  1  0
 14 10  1  0
 23 18  1  0
  1 31  1  0
  1 32  1  0
  2 33  1  0
  4 34  1  0
  6 35  1  0
  7 36  1  0
 10 37  1  1
 11 38  1  0
 11 39  1  0
 12 40  1  0
 12 41  1  0
 13 42  1  0
 13 43  1  0
 14 44  1  0
 16 45  1  0
 19 46  1  0
 19 47  1  0
 20 48  1  0
 20 49  1  0
 22 50  1  0
 22 51  1  0
 23 52  1  0
 23 53  1  0
 24 54  1  0
 25 55  1  0
 26 56  1  0
 28 57  1  0
 29 58  1  0
 30 59  1  0
M  END
>  <candidate_id>  (50) 
CAND_164da61b83

>  <source_generator>  (50) 
selfies

>  <parent_mol_id>  (50) 
JAK2_1509a7bf44

>  <canonical_smiles>  (50) 
C=CC1=CC(=CNC(=O)[C@H]2CCCN2)N=CC(N2CCOCC2)=CC=CN=CC=C1

>  <inchikey>  (50) 
IIMJEUVTCVKTHU-JOCHJYFZSA-N

>  <valid_rdkit>  (50) 
True

>  <unique_flag>  (50) 
True

>  <novel_flag>  (50) 
True

>  <mw>  (50) 
407.518

>  <logp>  (50) 
2.2496

>  <tpsa>  (50) 
78.32

>  <hbd>  (50) 
2

>  <hba>  (50) 
6

>  <rotatable_bonds>  (50) 
4

>  <qed>  (50) 
0.7493

>  <sa_score>  (50) 
4.02

>  <murcko_scaffold>  (50) 
O=C(NC=C1C=CC=CC=NC=CC=C(N2CCOCC2)C=N1)[C@H]1CCCN1

>  <max_ring_size>  (50) 
13

>  <has_macrocycle_12_20>  (50) 
True

>  <has_constrained_ring_8_11>  (50) 
False

>  <passes_basic_filters>  (50) 
True

>  <generation_notes>  (50) 
selfies_token_mutation

>  <best_score>  (50) 
nan

>  <qed_admet>  (50) 
0.7493

>  <sa_score_admet>  (50) 
4.02

>  <mw_admet>  (50) 
407.518

>  <logp_admet>  (50) 
2.2496

>  <tpsa_admet>  (50) 
78.32

>  <hbd_admet>  (50) 
2

>  <hba_admet>  (50) 
6

>  <rotatable_bonds_admet>  (50) 
4

>  <lipinski_violations>  (50) 
0

>  <veber_pass>  (50) 
True

>  <admet_score>  (50) 
0.887185

>  <synthesis_score>  (50) 
0.664444

>  <safety_proxy_score>  (50) 
1.0

>  <main_risk>  (50) 
no_major_descriptor_risk

>  <pose_score>  (50) 
0.5

>  <pose_decision>  (50) 
nan

>  <contacts_within_4A>  (50) 
nan

>  <hard_clashes_lt_1_8A>  (50) 
nan

>  <smiles>  (50) 
C=CC1=CC(=CNC(=O)[C@H]2CCCN2)N=CC(N2CCOCC2)=CC=CN=CC=C1

>  <docking_score>  (50) 
nan

>  <diversity_cluster>  (50) 
scaffold_4073b921

>  <docking_score_scaled>  (50) 
0.0

>  <novelty_score>  (50) 
1.0

>  <final_weighted_score>  (50) 
0.502104

>  <rank>  (50) 
988

>  <decision>  (50) 
await_docking

>  <diverse_rank>  (50) 
670

>  <selection_tier>  (50) 
await_docking

$$$$
CAND_08a3534750
     RDKit          3D

 59 61  0  0  0  0  0  0  0  0999 V2000
    7.7550    0.8431    2.7838 C   0  0  0  0  0  0  0  0  0  0  0  0
    6.3573    0.2921    2.6869 C   0  0  0  0  0  0  0  0  0  0  0  0
    5.7603   -0.1469    3.6646 O   0  0  0  0  0  0  0  0  0  0  0  0
    5.8375    0.3641    1.4058 N   0  0  0  0  0  0  0  0  0  0  0  0
    4.5766   -0.0762    1.0804 C   0  0  0  0  0  0  0  0  0  0  0  0
    4.0439   -0.0093   -0.1546 C   0  0  0  0  0  0  0  0  0  0  0  0
    2.6876   -0.5120   -0.3765 C   0  0  0  0  0  0  0  0  0  0  0  0
    2.0493   -0.4853   -1.5673 C   0  0  0  0  0  0  0  0  0  0  0  0
    0.6760   -1.0043   -1.7389 C   0  0  0  0  0  0  0  0  0  0  0  0
    0.3187   -2.3001   -1.6576 C   0  0  0  0  0  0  0  0  0  0  0  0
    1.0370   -3.1181   -0.6667 C   0  0  0  0  0  0  0  0  0  0  0  0
    0.7334   -3.2384    0.5778 N   0  0  0  0  0  0  0  0  0  0  0  0
   -0.4578   -2.5901    1.1448 C   0  0  0  0  0  0  0  0  0  0  0  0
   -0.7369   -1.2139    0.7675 N   0  0  0  0  0  0  0  0  0  0  0  0
   -1.7311   -0.8075   -0.1203 C   0  0  0  0  0  0  0  0  0  0  0  0
   -3.0032   -1.2403   -0.0267 C   0  0  0  0  0  0  0  0  0  0  0  0
   -4.0775   -1.0305   -0.9651 C   0  0  0  0  0  0  0  0  0  0  0  0
   -5.3489   -0.7518   -0.6398 C   0  0  0  0  0  0  0  0  0  0  0  0
   -5.9404   -0.5770    0.7275 C   0  0  0  0  0  0  0  0  0  0  0  0
   -6.2175    0.8285    1.0174 N   0  0  0  0  0  0  0  0  0  0  0  0
   -5.0668    1.5334    1.6092 C   0  0  0  0  0  0  0  0  0  0  0  0
   -4.6190    2.7530    0.7814 C   0  0  0  0  0  0  0  0  0  0  0  0
   -4.0304    2.3517   -0.4585 O   0  0  0  0  0  0  0  0  0  0  0  0
   -2.6186    2.1320   -0.3571 C   0  0  0  0  0  0  0  0  0  0  0  0
   -2.1480    1.3620   -1.5868 C   0  0  0  0  0  0  0  0  0  0  0  0
   -1.2900    0.1281   -1.2706 C   0  0  0  0  0  0  0  0  0  0  0  0
   -0.2277   -0.0072   -2.0237 N   0  0  0  0  0  0  0  0  0  0  0  0
    2.7473    0.1021   -2.7102 C   0  0  0  0  0  0  0  0  0  0  0  0
    3.9946    0.5825   -2.6219 C   0  0  0  0  0  0  0  0  0  0  0  0
    4.7829    0.5681   -1.3461 C   0  0  0  0  0  0  0  0  0  0  0  0
    7.7175    1.9353    2.7516 H   0  0  0  0  0  0  0  0  0  0  0  0
    8.3687    0.4751    1.9566 H   0  0  0  0  0  0  0  0  0  0  0  0
    8.2110    0.5242    3.7251 H   0  0  0  0  0  0  0  0  0  0  0  0
    6.4174    0.7637    0.6793 H   0  0  0  0  0  0  0  0  0  0  0  0
    4.0118   -0.4990    1.9121 H   0  0  0  0  0  0  0  0  0  0  0  0
    2.1946   -0.9273    0.4975 H   0  0  0  0  0  0  0  0  0  0  0  0
   -0.6886   -2.6271   -1.8828 H   0  0  0  0  0  0  0  0  0  0  0  0
    1.9252   -3.6458   -1.0536 H   0  0  0  0  0  0  0  0  0  0  0  0
   -1.3217   -3.2385    0.9554 H   0  0  0  0  0  0  0  0  0  0  0  0
   -0.3261   -2.5942    2.2327 H   0  0  0  0  0  0  0  0  0  0  0  0
    0.0743   -0.6059    0.7989 H   0  0  0  0  0  0  0  0  0  0  0  0
   -3.2670   -1.8508    0.8349 H   0  0  0  0  0  0  0  0  0  0  0  0
   -3.8178   -1.0806   -2.0217 H   0  0  0  0  0  0  0  0  0  0  0  0
   -6.0491   -0.6006   -1.4604 H   0  0  0  0  0  0  0  0  0  0  0  0
   -6.8970   -1.1135    0.7356 H   0  0  0  0  0  0  0  0  0  0  0  0
   -5.3449   -1.0453    1.5186 H   0  0  0  0  0  0  0  0  0  0  0  0
   -6.4836    1.2944    0.1492 H   0  0  0  0  0  0  0  0  0  0  0  0
   -4.2153    0.8643    1.7707 H   0  0  0  0  0  0  0  0  0  0  0  0
   -5.3820    1.8896    2.5963 H   0  0  0  0  0  0  0  0  0  0  0  0
   -3.9204    3.3744    1.3546 H   0  0  0  0  0  0  0  0  0  0  0  0
   -5.4859    3.3807    0.5460 H   0  0  0  0  0  0  0  0  0  0  0  0
   -2.1328    3.1146   -0.3321 H   0  0  0  0  0  0  0  0  0  0  0  0
   -2.3731    1.6260    0.5808 H   0  0  0  0  0  0  0  0  0  0  0  0
   -1.5309    2.0418   -2.1902 H   0  0  0  0  0  0  0  0  0  0  0  0
   -2.9760    1.0657   -2.2376 H   0  0  0  0  0  0  0  0  0  0  0  0
    2.2058    0.1463   -3.6521 H   0  0  0  0  0  0  0  0  0  0  0  0
    4.4671    1.0118   -3.5002 H   0  0  0  0  0  0  0  0  0  0  0  0
    5.6974   -0.0121   -1.5207 H   0  0  0  0  0  0  0  0  0  0  0  0
    5.0781    1.6009   -1.1228 H   0  0  0  0  0  0  0  0  0  0  0  0
  1  2  1  0
  2  3  2  0
  2  4  1  0
  4  5  1  0
  5  6  2  3
  6  7  1  0
  7  8  2  0
  8  9  1  0
  9 10  2  3
 10 11  1  0
 11 12  2  3
 12 13  1  0
 13 14  1  0
 14 15  1  0
 15 16  2  3
 16 17  1  0
 17 18  2  3
 18 19  1  0
 19 20  1  0
 20 21  1  0
 21 22  1  0
 22 23  1  0
 23 24  1  0
 24 25  1  0
 25 26  1  0
 26 27  2  3
  8 28  1  0
 28 29  2  0
 29 30  1  0
 30  6  1  0
 27  9  1  0
 26 15  1  0
  1 31  1  0
  1 32  1  0
  1 33  1  0
  4 34  1  0
  5 35  1  0
  7 36  1  0
 10 37  1  0
 11 38  1  0
 13 39  1  0
 13 40  1  0
 14 41  1  0
 16 42  1  0
 17 43  1  0
 18 44  1  0
 19 45  1  0
 19 46  1  0
 20 47  1  0
 21 48  1  0
 21 49  1  0
 22 50  1  0
 22 51  1  0
 24 52  1  0
 24 53  1  0
 25 54  1  0
 25 55  1  0
 28 56  1  0
 29 57  1  0
 30 58  1  0
 30 59  1  0
M  END
>  <candidate_id>  (51) 
CAND_08a3534750

>  <source_generator>  (51) 
selfies

>  <parent_mol_id>  (51) 
JAK2_20c09468c6

>  <canonical_smiles>  (51) 
CC(=O)NC=C1C=C(C2=CC=NCNC3=CC=CCNCCOCCC3=N2)C=CC1

>  <inchikey>  (51) 
QTNCDTXSLDOIMI-UHFFFAOYSA-N

>  <valid_rdkit>  (51) 
True

>  <unique_flag>  (51) 
True

>  <novel_flag>  (51) 
True

>  <mw>  (51) 
407.518

>  <logp>  (51) 
2.2991

>  <tpsa>  (51) 
87.11

>  <hbd>  (51) 
3

>  <hba>  (51) 
6

>  <rotatable_bonds>  (51) 
2

>  <qed>  (51) 
0.6556

>  <sa_score>  (51) 
3.52

>  <murcko_scaffold>  (51) 
C=C1C=C(C2=CC=NCNC3=CC=CCNCCOCCC3=N2)C=CC1

>  <max_ring_size>  (51) 
12

>  <has_macrocycle_12_20>  (51) 
True

>  <has_constrained_ring_8_11>  (51) 
False

>  <passes_basic_filters>  (51) 
True

>  <generation_notes>  (51) 
selfies_token_mutation

>  <best_score>  (51) 
nan

>  <qed_admet>  (51) 
0.6556

>  <sa_score_admet>  (51) 
3.52

>  <mw_admet>  (51) 
407.518

>  <logp_admet>  (51) 
2.2991

>  <tpsa_admet>  (51) 
87.11

>  <hbd_admet>  (51) 
3

>  <hba_admet>  (51) 
6

>  <rotatable_bonds_admet>  (51) 
2

>  <lipinski_violations>  (51) 
0

>  <veber_pass>  (51) 
True

>  <admet_score>  (51) 
0.84502

>  <synthesis_score>  (51) 
0.72

>  <safety_proxy_score>  (51) 
1.0

>  <main_risk>  (51) 
no_major_descriptor_risk

>  <pose_score>  (51) 
0.5

>  <pose_decision>  (51) 
nan

>  <contacts_within_4A>  (51) 
nan

>  <hard_clashes_lt_1_8A>  (51) 
nan

>  <smiles>  (51) 
CC(=O)NC=C1C=C(C2=CC=NCNC3=CC=CCNCCOCCC3=N2)C=CC1

>  <docking_score>  (51) 
nan

>  <diversity_cluster>  (51) 
scaffold_858bce7d

>  <docking_score_scaled>  (51) 
0.0

>  <novelty_score>  (51) 
1.0

>  <final_weighted_score>  (51) 
0.502004

>  <rank>  (51) 
993

>  <decision>  (51) 
await_docking

>  <diverse_rank>  (51) 
675

>  <selection_tier>  (51) 
await_docking

$$$$
CAND_527b0c26f5
     RDKit          3D

 47 48  0  0  0  0  0  0  0  0999 V2000
    3.9777    2.8366   -3.9782 C   0  0  0  0  0  0  0  0  0  0  0  0
    3.3291    2.1491   -2.8225 C   0  0  0  0  0  0  0  0  0  0  0  0
    2.0109    2.1788   -2.5795 C   0  0  0  0  0  0  0  0  0  0  0  0
    1.4549    1.4822   -1.3839 C   0  0  0  0  0  0  0  0  0  0  0  0
    1.5832    0.2072   -1.1634 N   0  0  0  0  0  0  0  0  0  0  0  0
    2.1332   -0.7173   -1.9717 N   0  0  0  0  0  0  0  0  0  0  0  0
    2.0356   -2.0711   -1.6587 C   0  0  0  0  0  0  0  0  0  0  0  0
    1.2914   -2.6523   -0.6830 C   0  0  0  0  0  0  0  0  0  0  0  0
    0.3630   -1.7864    0.1254 C   0  0  0  0  0  0  0  0  0  0  0  0
   -0.6895   -2.3417    1.0760 C   0  0  1  0  0  0  0  0  0  0  0  0
    0.0298   -3.1044    2.1664 C   0  0  0  0  0  0  0  0  0  0  0  0
    0.7824   -4.1532    2.0110 N   0  0  0  0  0  0  0  0  0  0  0  0
    1.0367   -4.6747    0.7639 C   0  0  0  0  0  0  0  0  0  0  0  0
    1.3130   -4.0700   -0.4053 C   0  0  0  0  0  0  0  0  0  0  0  0
    1.6406   -4.8698   -1.4493 F   0  0  0  0  0  0  0  0  0  0  0  0
   -1.6397   -1.3349    1.6329 N   0  0  0  0  0  0  0  0  0  0  0  0
   -1.2072    0.0585    1.8566 C   0  0  0  0  0  0  0  0  0  0  0  0
   -0.2345    0.1615    2.9999 C   0  0  0  0  0  0  0  0  0  0  0  0
    0.5187    0.2293    3.8851 N   0  0  0  0  0  0  0  0  0  0  0  0
   -2.3730    0.8543    2.2560 N   0  0  0  0  0  0  0  0  0  0  0  0
   -3.3009    0.9372    1.3655 C   0  0  0  0  0  0  0  0  0  0  0  0
   -4.5723    1.7138    1.6029 C   0  0  0  0  0  0  0  0  0  0  0  0
   -4.6483    2.3890    2.9584 C   0  0  0  0  0  0  0  0  0  0  0  0
   -0.6195    0.6401    0.6630 N   0  0  0  0  0  0  0  0  0  0  0  0
   -0.0273    1.7711    0.6187 C   0  0  0  0  0  0  0  0  0  0  0  0
    0.7486    2.2232   -0.4351 N   0  0  0  0  0  0  0  0  0  0  0  0
    4.7108    3.5637   -3.6159 H   0  0  0  0  0  0  0  0  0  0  0  0
    3.2523    3.3655   -4.6044 H   0  0  0  0  0  0  0  0  0  0  0  0
    4.4983    2.1044   -4.6028 H   0  0  0  0  0  0  0  0  0  0  0  0
    3.9900    1.6014   -2.1513 H   0  0  0  0  0  0  0  0  0  0  0  0
    1.3083    2.7306   -3.1917 H   0  0  0  0  0  0  0  0  0  0  0  0
    2.6312   -0.4640   -2.8212 H   0  0  0  0  0  0  0  0  0  0  0  0
    2.6756   -2.6742   -2.2975 H   0  0  0  0  0  0  0  0  0  0  0  0
   -0.2168   -1.2322   -0.6233 H   0  0  0  0  0  0  0  0  0  0  0  0
    1.0196   -1.1392    0.7205 H   0  0  0  0  0  0  0  0  0  0  0  0
   -1.3115   -3.0717    0.5430 H   0  0  0  0  0  0  0  0  0  0  0  0
   -0.0937   -2.7443    3.2013 H   0  0  0  0  0  0  0  0  0  0  0  0
    1.1231   -5.7605    0.7678 H   0  0  0  0  0  0  0  0  0  0  0  0
   -2.0791   -1.6724    2.4841 H   0  0  0  0  0  0  0  0  0  0  0  0
   -3.2230    0.4452    0.3769 H   0  0  0  0  0  0  0  0  0  0  0  0
   -4.6534    2.4605    0.8056 H   0  0  0  0  0  0  0  0  0  0  0  0
   -5.4093    1.0178    1.4809 H   0  0  0  0  0  0  0  0  0  0  0  0
   -5.5924    2.9332    3.0597 H   0  0  0  0  0  0  0  0  0  0  0  0
   -4.5900    1.6549    3.7689 H   0  0  0  0  0  0  0  0  0  0  0  0
   -3.8282    3.1024    3.0904 H   0  0  0  0  0  0  0  0  0  0  0  0
   -0.0617    2.5027    1.4454 H   0  0  0  0  0  0  0  0  0  0  0  0
    0.9128    3.2198   -0.4649 H   0  0  0  0  0  0  0  0  0  0  0  0
  1  2  1  0
  2  3  2  3
  3  4  1  0
  4  5  2  3
  5  6  1  0
  6  7  1  0
  7  8  2  3
  8  9  1  0
  9 10  1  0
 10 11  1  0
 11 12  2  0
 12 13  1  0
 13 14  2  0
 14 15  1  0
 10 16  1  0
 16 17  1  0
 17 18  1  0
 18 19  3  0
 17 20  1  0
 20 21  2  3
 21 22  1  0
 22 23  1  0
 17 24  1  0
 24 25  2  3
 25 26  1  0
 26  4  1  0
 14  8  1  0
  1 27  1  0
  1 28  1  0
  1 29  1  0
  2 30  1  0
  3 31  1  0
  6 32  1  0
  7 33  1  0
  9 34  1  0
  9 35  1  0
 10 36  1  6
 11 37  1  0
 13 38  1  0
 16 39  1  0
 21 40  1  0
 22 41  1  0
 22 42  1  0
 23 43  1  0
 23 44  1  0
 23 45  1  0
 25 46  1  0
 26 47  1  0
M  END
>  <candidate_id>  (52) 
CAND_527b0c26f5

>  <source_generator>  (52) 
selfies

>  <parent_mol_id>  (52) 
JAK2_c828b6ae57

>  <canonical_smiles>  (52) 
CC=CC1=NNC=C2C[C@@H](C=NC=C2F)NC(C#N)(N=CCC)N=CN1

>  <inchikey>  (52) 
GERXLQRSGNEBDY-MBIQTGHCSA-N

>  <valid_rdkit>  (52) 
True

>  <unique_flag>  (52) 
True

>  <novel_flag>  (52) 
True

>  <mw>  (52) 
356.409

>  <logp>  (52) 
1.8828

>  <tpsa>  (52) 
109.32

>  <hbd>  (52) 
3

>  <hba>  (52) 
8

>  <rotatable_bonds>  (52) 
3

>  <qed>  (52) 
0.6708

>  <sa_score>  (52) 
3.611

>  <murcko_scaffold>  (52) 
C1=CC2=CNN=CNC=NCN[C@H](C=N1)C2

>  <max_ring_size>  (52) 
12

>  <has_macrocycle_12_20>  (52) 
True

>  <has_constrained_ring_8_11>  (52) 
False

>  <passes_basic_filters>  (52) 
True

>  <generation_notes>  (52) 
selfies_token_mutation

>  <best_score>  (52) 
nan

>  <qed_admet>  (52) 
0.6708

>  <sa_score_admet>  (52) 
3.611

>  <mw_admet>  (52) 
356.409

>  <logp_admet>  (52) 
1.8828

>  <tpsa_admet>  (52) 
109.32

>  <hbd_admet>  (52) 
3

>  <hba_admet>  (52) 
8

>  <rotatable_bonds_admet>  (52) 
3

>  <lipinski_violations>  (52) 
0

>  <veber_pass>  (52) 
True

>  <admet_score>  (52) 
0.85186

>  <synthesis_score>  (52) 
0.709889

>  <safety_proxy_score>  (52) 
1.0

>  <main_risk>  (52) 
no_major_descriptor_risk

>  <pose_score>  (52) 
0.5

>  <pose_decision>  (52) 
nan

>  <contacts_within_4A>  (52) 
nan

>  <hard_clashes_lt_1_8A>  (52) 
nan

>  <smiles>  (52) 
CC=CC1=NNC=C2C[C@@H](C=NC=C2F)NC(C#N)(N=CCC)N=CN1

>  <docking_score>  (52) 
nan

>  <diversity_cluster>  (52) 
scaffold_229e95da

>  <docking_score_scaled>  (52) 
0.0

>  <novelty_score>  (52) 
1.0

>  <final_weighted_score>  (52) 
0.501855

>  <rank>  (52) 
1001

>  <decision>  (52) 
await_docking

>  <diverse_rank>  (52) 
680

>  <selection_tier>  (52) 
await_docking

$$$$
CAND_fa2553a110
     RDKit          3D

 43 45  0  0  0  0  0  0  0  0999 V2000
   -3.6267   -3.3837    0.6418 C   0  0  0  0  0  0  0  0  0  0  0  0
   -2.9903   -2.2954   -0.2178 C   0  0  0  0  0  0  0  0  0  0  0  0
   -3.6803   -1.2938   -0.6861 N   0  0  0  0  0  0  0  0  0  0  0  0
   -4.9209   -1.0394   -0.1476 C   0  0  0  0  0  0  0  0  0  0  0  0
   -5.1257   -0.0116    0.6901 C   0  0  0  0  0  0  0  0  0  0  0  0
   -6.2921    0.2072    1.3221 F   0  0  0  0  0  0  0  0  0  0  0  0
   -3.9913    0.8860    0.9737 C   0  0  0  0  0  0  0  0  0  0  0  0
   -3.7616    1.5448    2.0702 N   0  0  0  0  0  0  0  0  0  0  0  0
   -2.5038    2.0856    2.1071 N   0  0  0  0  0  0  0  0  0  0  0  0
   -1.5512    1.5247    1.3389 N   0  0  0  0  0  0  0  0  0  0  0  0
   -0.4034    2.0627    1.1496 C   0  0  0  0  0  0  0  0  0  0  0  0
    0.1689    3.3155    1.7295 C   0  0  0  0  0  0  0  0  0  0  0  0
    1.3817    3.4387    1.1748 C   0  0  0  0  0  0  0  0  0  0  0  0
    1.6888    2.4326    0.3141 N   0  0  0  0  0  0  0  0  0  0  0  0
    0.6591    1.5258    0.1951 C   0  0  0  0  0  0  0  0  0  0  0  0
    0.5302    0.4519   -0.6340 C   0  0  0  0  0  0  0  0  0  0  0  0
    1.5402    0.0998   -1.5277 N   0  0  0  0  0  0  0  0  0  0  0  0
    2.8614   -0.0618   -1.3642 C   0  0  0  0  0  0  0  0  0  0  0  0
    3.6007   -0.0626   -0.2060 C   0  0  0  0  0  0  0  0  0  0  0  0
    4.8803   -0.3096   -0.6123 N   0  0  0  0  0  0  0  0  0  0  0  0
    6.0437   -0.4034    0.2307 C   0  0  0  0  0  0  0  0  0  0  0  0
    4.8631   -0.4651   -1.9679 C   0  0  0  0  0  0  0  0  0  0  0  0
    3.6465   -0.3304   -2.4479 N   0  0  0  0  0  0  0  0  0  0  0  0
   -0.6794   -0.2215   -0.6743 N   0  0  0  0  0  0  0  0  0  0  0  0
   -0.6142   -1.5064   -0.5682 C   0  0  0  0  0  0  0  0  0  0  0  0
   -1.6276   -2.4312   -0.4168 N   0  0  0  0  0  0  0  0  0  0  0  0
   -4.5155   -3.7818    0.1440 H   0  0  0  0  0  0  0  0  0  0  0  0
   -2.9317   -4.2115    0.8093 H   0  0  0  0  0  0  0  0  0  0  0  0
   -3.9052   -2.9671    1.6141 H   0  0  0  0  0  0  0  0  0  0  0  0
   -5.7359   -1.7141   -0.3887 H   0  0  0  0  0  0  0  0  0  0  0  0
   -3.2734    0.9310    0.1332 H   0  0  0  0  0  0  0  0  0  0  0  0
   -2.2883    2.7674    2.8291 H   0  0  0  0  0  0  0  0  0  0  0  0
   -0.3261    3.9683    2.4217 H   0  0  0  0  0  0  0  0  0  0  0  0
    2.0878    4.2426    1.3334 H   0  0  0  0  0  0  0  0  0  0  0  0
    2.4792    2.4163   -0.3151 H   0  0  0  0  0  0  0  0  0  0  0  0
    1.1564   -0.1443   -2.4343 H   0  0  0  0  0  0  0  0  0  0  0  0
    3.3306    0.0764    0.8313 H   0  0  0  0  0  0  0  0  0  0  0  0
    6.8829    0.0884   -0.2680 H   0  0  0  0  0  0  0  0  0  0  0  0
    6.2632   -1.4613    0.3943 H   0  0  0  0  0  0  0  0  0  0  0  0
    5.8415    0.0924    1.1836 H   0  0  0  0  0  0  0  0  0  0  0  0
    5.7503   -0.6771   -2.5506 H   0  0  0  0  0  0  0  0  0  0  0  0
    0.3651   -2.0211   -0.5186 H   0  0  0  0  0  0  0  0  0  0  0  0
   -1.2770   -3.3639   -0.2439 H   0  0  0  0  0  0  0  0  0  0  0  0
  1  2  1  0
  2  3  2  3
  3  4  1  0
  4  5  2  3
  5  6  1  0
  5  7  1  0
  7  8  2  3
  8  9  1  0
  9 10  1  0
 10 11  2  3
 11 12  1  0
 12 13  2  0
 13 14  1  0
 14 15  1  0
 15 16  2  3
 16 17  1  0
 17 18  1  0
 18 19  2  0
 19 20  1  0
 20 21  1  0
 20 22  1  0
 22 23  2  0
 16 24  1  0
 24 25  2  3
 25 26  1  0
 26  2  1  0
 15 11  1  0
 23 18  1  0
  1 27  1  0
  1 28  1  0
  1 29  1  0
  4 30  1  0
  7 31  1  0
  9 32  1  0
 12 33  1  0
 13 34  1  0
 14 35  1  0
 17 36  1  0
 19 37  1  0
 21 38  1  0
 21 39  1  0
 21 40  1  0
 22 41  1  0
 25 42  1  0
 26 43  1  0
M  END
>  <candidate_id>  (53) 
CAND_fa2553a110

>  <source_generator>  (53) 
selfies

>  <parent_mol_id>  (53) 
JAK2_763cf817fa

>  <canonical_smiles>  (53) 
CC1=NC=C(F)C=NNN=c2cc[nH]c2=C(Nc2cn(C)cn2)N=CN1

>  <inchikey>  (53) 
HYEBCQDZDXIBTI-UHFFFAOYSA-N

>  <valid_rdkit>  (53) 
True

>  <unique_flag>  (53) 
True

>  <novel_flag>  (53) 
True

>  <mw>  (53) 
356.369

>  <logp>  (53) 
-0.1032

>  <tpsa>  (53) 
119.14

>  <hbd>  (53) 
4

>  <hba>  (53) 
8

>  <rotatable_bonds>  (53) 
2

>  <qed>  (53) 
0.6005

>  <sa_score>  (53) 
3.235

>  <murcko_scaffold>  (53) 
C1=CN=CNC=NC(Nc2c[nH]cn2)=c2[nH]ccc2=NNN=C1

>  <max_ring_size>  (53) 
14

>  <has_macrocycle_12_20>  (53) 
True

>  <has_constrained_ring_8_11>  (53) 
False

>  <passes_basic_filters>  (53) 
True

>  <generation_notes>  (53) 
selfies_token_mutation

>  <best_score>  (53) 
nan

>  <qed_admet>  (53) 
0.6005

>  <sa_score_admet>  (53) 
3.235

>  <mw_admet>  (53) 
356.369

>  <logp_admet>  (53) 
-0.1032

>  <tpsa_admet>  (53) 
119.14

>  <hbd_admet>  (53) 
4

>  <hba_admet>  (53) 
8

>  <rotatable_bonds_admet>  (53) 
2

>  <lipinski_violations>  (53) 
0

>  <veber_pass>  (53) 
True

>  <admet_score>  (53) 
0.820225

>  <synthesis_score>  (53) 
0.751667

>  <safety_proxy_score>  (53) 
1.0

>  <main_risk>  (53) 
no_major_descriptor_risk

>  <pose_score>  (53) 
0.5

>  <pose_decision>  (53) 
nan

>  <contacts_within_4A>  (53) 
nan

>  <hard_clashes_lt_1_8A>  (53) 
nan

>  <smiles>  (53) 
CC1=NC=C(F)C=NNN=c2cc[nH]c2=C(Nc2cn(C)cn2)N=CN1

>  <docking_score>  (53) 
nan

>  <diversity_cluster>  (53) 
scaffold_9bc8257d

>  <docking_score_scaled>  (53) 
0.0

>  <novelty_score>  (53) 
1.0

>  <final_weighted_score>  (53) 
0.501795

>  <rank>  (53) 
1003

>  <decision>  (53) 
await_docking

>  <diverse_rank>  (53) 
682

>  <selection_tier>  (53) 
await_docking

$$$$
CAND_3fa11742db
     RDKit          3D

 43 45  0  0  0  0  0  0  0  0999 V2000
   -2.9688    2.1139    1.0363 C   0  0  0  0  0  0  0  0  0  0  0  0
   -3.2571    0.6452    0.7319 C   0  0  2  0  0  0  0  0  0  0  0  0
   -2.1476    0.0680    0.0153 O   0  0  0  0  0  0  0  0  0  0  0  0
   -1.1980   -0.3500    0.9426 N   0  0  0  0  0  0  0  0  0  0  0  0
    0.1492   -0.0478    0.8611 C   0  0  0  0  0  0  0  0  0  0  0  0
    0.5769    0.9222    0.0104 C   0  0  0  0  0  0  0  0  0  0  0  0
    1.8746    1.2670   -0.2549 N   0  0  0  0  0  0  0  0  0  0  0  0
    2.5691    1.6810    0.7504 C   0  0  0  0  0  0  0  0  0  0  0  0
    4.0341    1.5272    0.5510 C   0  0  0  0  0  0  0  0  0  0  0  0
    4.6258    0.6894    1.3375 N   0  0  0  0  0  0  0  0  0  0  0  0
    5.5899   -0.0033    0.6837 N   0  0  0  0  0  0  0  0  0  0  0  0
    5.2533   -1.1143    0.0653 C   0  0  0  0  0  0  0  0  0  0  0  0
    5.7646   -1.9511   -0.8696 C   0  0  0  0  0  0  0  0  0  0  0  0
    4.4788   -2.7327   -1.0294 C   0  0  0  0  0  0  0  0  0  0  0  0
    4.0497   -2.0871    0.3007 C   0  0  0  0  0  0  0  0  0  0  0  0
    2.7428   -1.4928    0.2490 N   0  0  0  0  0  0  0  0  0  0  0  0
    2.0622   -1.3139    1.4240 C   0  0  0  0  0  0  0  0  0  0  0  0
    0.9759   -0.6953    1.7556 N   0  0  0  0  0  0  0  0  0  0  0  0
   -4.5236    0.5258   -0.1039 C   0  0  0  0  0  0  0  0  0  0  0  0
   -4.4872    0.6403   -1.4979 C   0  0  0  0  0  0  0  0  0  0  0  0
   -5.6755    0.5472   -2.2209 C   0  0  0  0  0  0  0  0  0  0  0  0
   -6.8621    0.3500   -1.5353 C   0  0  0  0  0  0  0  0  0  0  0  0
   -8.0203    0.2560   -2.2002 F   0  0  0  0  0  0  0  0  0  0  0  0
   -6.8286    0.2554   -0.1570 C   0  0  0  0  0  0  0  0  0  0  0  0
   -5.6906    0.3426    0.5743 N   0  0  0  0  0  0  0  0  0  0  0  0
   -3.8157    2.5937    1.5378 H   0  0  0  0  0  0  0  0  0  0  0  0
   -2.7495    2.6723    0.1189 H   0  0  0  0  0  0  0  0  0  0  0  0
   -2.0886    2.2117    1.6803 H   0  0  0  0  0  0  0  0  0  0  0  0
   -3.4227    0.0932    1.6676 H   0  0  0  0  0  0  0  0  0  0  0  0
   -1.4143   -1.1458    1.5368 H   0  0  0  0  0  0  0  0  0  0  0  0
   -0.1509    1.4047   -0.6373 H   0  0  0  0  0  0  0  0  0  0  0  0
    2.2237    1.9603    1.7591 H   0  0  0  0  0  0  0  0  0  0  0  0
    4.4339    1.9271   -0.3961 H   0  0  0  0  0  0  0  0  0  0  0  0
    6.5095    0.4299    0.5862 H   0  0  0  0  0  0  0  0  0  0  0  0
    6.6771   -1.9354   -1.4591 H   0  0  0  0  0  0  0  0  0  0  0  0
    4.5669   -3.8238   -0.9896 H   0  0  0  0  0  0  0  0  0  0  0  0
    3.8756   -2.4731   -1.9082 H   0  0  0  0  0  0  0  0  0  0  0  0
    4.1678   -2.7704    1.1533 H   0  0  0  0  0  0  0  0  0  0  0  0
    2.4940   -0.9011   -0.5371 H   0  0  0  0  0  0  0  0  0  0  0  0
    2.5723   -1.8102    2.2692 H   0  0  0  0  0  0  0  0  0  0  0  0
   -3.5461    0.7960   -2.0177 H   0  0  0  0  0  0  0  0  0  0  0  0
   -5.6789    0.6247   -3.3028 H   0  0  0  0  0  0  0  0  0  0  0  0
   -7.7417    0.1035    0.4088 H   0  0  0  0  0  0  0  0  0  0  0  0
  1  2  1  0
  2  3  1  0
  3  4  1  0
  4  5  1  0
  5  6  2  3
  6  7  1  0
  7  8  2  3
  8  9  1  0
  9 10  2  3
 10 11  1  0
 11 12  1  0
 12 13  2  0
 13 14  1  0
 14 15  1  0
 15 16  1  0
 16 17  1  0
 17 18  2  3
  2 19  1  0
 19 20  2  0
 20 21  1  0
 21 22  2  0
 22 23  1  0
 22 24  1  0
 24 25  2  0
 18  5  1  0
 25 19  1  0
 15 12  1  0
  1 26  1  0
  1 27  1  0
  1 28  1  0
  2 29  1  1
  4 30  1  0
  6 31  1  0
  8 32  1  0
  9 33  1  0
 11 34  1  0
 13 35  1  0
 14 36  1  0
 14 37  1  0
 15 38  1  0
 16 39  1  0
 17 40  1  0
 20 41  1  0
 21 42  1  0
 24 43  1  0
M  END
>  <candidate_id>  (54) 
CAND_3fa11742db

>  <source_generator>  (54) 
selfies

>  <parent_mol_id>  (54) 
JAK2_1bae26071f

>  <canonical_smiles>  (54) 
C[C@H](ONC1=CN=CC=NNC2=CCC2NC=N1)c1ccc(F)cn1

>  <inchikey>  (54) 
SZFJXIYRFASHBY-ZSOXZCCMSA-N

>  <valid_rdkit>  (54) 
True

>  <unique_flag>  (54) 
True

>  <novel_flag>  (54) 
True

>  <mw>  (54) 
343.366

>  <logp>  (54) 
1.5357

>  <tpsa>  (54) 
95.29

>  <hbd>  (54) 
3

>  <hba>  (54) 
8

>  <rotatable_bonds>  (54) 
4

>  <qed>  (54) 
0.7209

>  <sa_score>  (54) 
3.95

>  <murcko_scaffold>  (54) 
C1=NC=C(NOCc2ccccn2)N=CNC2CC=C2NN=C1

>  <max_ring_size>  (54) 
12

>  <has_macrocycle_12_20>  (54) 
True

>  <has_constrained_ring_8_11>  (54) 
False

>  <passes_basic_filters>  (54) 
True

>  <generation_notes>  (54) 
selfies_token_mutation

>  <best_score>  (54) 
nan

>  <qed_admet>  (54) 
0.7209

>  <sa_score_admet>  (54) 
3.95

>  <mw_admet>  (54) 
343.366

>  <logp_admet>  (54) 
1.5357

>  <tpsa_admet>  (54) 
95.29

>  <hbd_admet>  (54) 
3

>  <hba_admet>  (54) 
8

>  <rotatable_bonds_admet>  (54) 
4

>  <lipinski_violations>  (54) 
0

>  <veber_pass>  (54) 
True

>  <admet_score>  (54) 
0.874405

>  <synthesis_score>  (54) 
0.672222

>  <safety_proxy_score>  (54) 
1.0

>  <main_risk>  (54) 
no_major_descriptor_risk

>  <pose_score>  (54) 
0.5

>  <pose_decision>  (54) 
nan

>  <contacts_within_4A>  (54) 
nan

>  <hard_clashes_lt_1_8A>  (54) 
nan

>  <smiles>  (54) 
C[C@H](ONC1=CN=CC=NNC2=CCC2NC=N1)c1ccc(F)cn1

>  <docking_score>  (54) 
nan

>  <diversity_cluster>  (54) 
scaffold_01dfc536

>  <docking_score_scaled>  (54) 
0.0

>  <novelty_score>  (54) 
1.0

>  <final_weighted_score>  (54) 
0.500714

>  <rank>  (54) 
1048

>  <decision>  (54) 
await_docking

>  <diverse_rank>  (54) 
715

>  <selection_tier>  (54) 
await_docking

$$$$
CAND_6741d8c72c
     RDKit          3D

 38 40  0  0  0  0  0  0  0  0999 V2000
   -3.9747   -0.8512    1.0328 C   0  0  0  0  0  0  0  0  0  0  0  0
   -2.4645   -0.5714    0.9422 C   0  0  2  0  0  0  0  0  0  0  0  0
   -2.2240    0.5275   -0.1302 C   0  0  0  0  0  0  0  0  0  0  0  0
   -0.9122    1.3331   -0.3053 C   0  0  0  0  0  0  0  0  0  0  0  0
   -0.0401    1.6684    0.5842 N   0  0  0  0  0  0  0  0  0  0  0  0
   -0.0188    1.1425    1.9213 C   0  0  0  0  0  0  0  0  0  0  0  0
    0.7966   -0.4582    2.1427 S   0  0  0  0  0  0  0  0  0  0  0  0
    0.5606   -1.2877    0.6513 C   0  0  0  0  0  0  0  0  0  0  0  0
   -0.5103   -2.0041    0.2572 C   0  0  0  0  0  0  0  0  0  0  0  0
   -0.1723   -2.9338   -0.7075 N   0  0  0  0  0  0  0  0  0  0  0  0
    1.0466   -2.6455   -1.0405 C   0  0  0  0  0  0  0  0  0  0  0  0
    1.5353   -1.3534   -0.4830 C   0  0  0  0  0  0  0  0  0  0  0  0
    3.0201   -1.0411   -0.3595 C   0  0  0  0  0  0  0  0  0  0  0  0
    3.0764    0.4805   -0.5047 C   0  0  0  0  0  0  0  0  0  0  0  0
    3.4322    1.2302    0.5788 N   0  0  0  0  0  0  0  0  0  0  0  0
    2.5951    0.9697   -1.6153 N   0  0  0  0  0  0  0  0  0  0  0  0
    1.7826    2.0618   -1.4104 N   0  0  0  0  0  0  0  0  0  0  0  0
    0.6000    2.1237   -2.1356 C   0  0  0  0  0  0  0  0  0  0  0  0
   -0.6474    1.8554   -1.7014 C   0  0  0  0  0  0  0  0  0  0  0  0
   -1.8071   -1.8414    0.6481 N   0  0  0  0  0  0  0  0  0  0  0  0
   -4.5232    0.0502    1.3261 H   0  0  0  0  0  0  0  0  0  0  0  0
   -4.1824   -1.6273    1.7782 H   0  0  0  0  0  0  0  0  0  0  0  0
   -4.3738   -1.1987    0.0731 H   0  0  0  0  0  0  0  0  0  0  0  0
   -2.1792   -0.2522    1.9407 H   0  0  0  0  0  0  0  0  0  0  0  0
   -2.9767    1.3125    0.0346 H   0  0  0  0  0  0  0  0  0  0  0  0
   -2.4592    0.0900   -1.1108 H   0  0  0  0  0  0  0  0  0  0  0  0
    0.5810    1.8388    2.5194 H   0  0  0  0  0  0  0  0  0  0  0  0
   -0.9945    1.1869    2.4076 H   0  0  0  0  0  0  0  0  0  0  0  0
    1.6393   -3.2212   -1.7651 H   0  0  0  0  0  0  0  0  0  0  0  0
    1.1278   -0.6765   -1.2472 H   0  0  0  0  0  0  0  0  0  0  0  0
    3.5915   -1.4962   -1.1749 H   0  0  0  0  0  0  0  0  0  0  0  0
    3.4427   -1.3668    0.5949 H   0  0  0  0  0  0  0  0  0  0  0  0
    3.6543    0.8163    1.4739 H   0  0  0  0  0  0  0  0  0  0  0  0
    3.5020    2.2336    0.4717 H   0  0  0  0  0  0  0  0  0  0  0  0
    1.5656    2.2312   -0.4142 H   0  0  0  0  0  0  0  0  0  0  0  0
    0.7878    2.3669   -3.1772 H   0  0  0  0  0  0  0  0  0  0  0  0
   -1.4893    1.8999   -2.3810 H   0  0  0  0  0  0  0  0  0  0  0  0
   -2.3880   -2.5925    0.2849 H   0  0  0  0  0  0  0  0  0  0  0  0
  1  2  1  0
  2  3  1  0
  3  4  1  0
  4  5  2  3
  5  6  1  0
  6  7  1  0
  7  8  1  0
  8  9  2  0
  9 10  1  0
 10 11  2  0
 11 12  1  0
 12 13  1  0
 13 14  1  0
 14 15  1  0
 14 16  2  3
 16 17  1  0
 17 18  1  0
 18 19  2  3
  9 20  1  0
 20  2  1  0
 19  4  1  0
 12  8  1  0
  1 21  1  0
  1 22  1  0
  1 23  1  0
  2 24  1  1
  3 25  1  0
  3 26  1  0
  6 27  1  0
  6 28  1  0
 11 29  1  0
 12 30  1  0
 13 31  1  0
 13 32  1  0
 15 33  1  0
 15 34  1  0
 17 35  1  0
 18 36  1  0
 19 37  1  0
 20 38  1  0
M  END
>  <candidate_id>  (55) 
CAND_6741d8c72c

>  <source_generator>  (55) 
selfies

>  <parent_mol_id>  (55) 
JAK2_9ce72827e9

>  <canonical_smiles>  (55) 
C[C@@H]1CC2=NCSC3=C(N=CC3CC(N)=NNC=C2)N1

>  <inchikey>  (55) 
YCBZYUMAZNEAOW-VEDVMXKPSA-N

>  <valid_rdkit>  (55) 
True

>  <unique_flag>  (55) 
True

>  <novel_flag>  (55) 
True

>  <mw>  (55) 
290.396

>  <logp>  (55) 
1.1488

>  <tpsa>  (55) 
87.16

>  <hbd>  (55) 
3

>  <hba>  (55) 
7

>  <rotatable_bonds>  (55) 
0

>  <qed>  (55) 
0.6243

>  <sa_score>  (55) 
3.45

>  <murcko_scaffold>  (55) 
C1=CC2=NCSC3=C(N=CC3CC=NN1)NCC2

>  <max_ring_size>  (55) 
12

>  <has_macrocycle_12_20>  (55) 
True

>  <has_constrained_ring_8_11>  (55) 
False

>  <passes_basic_filters>  (55) 
True

>  <generation_notes>  (55) 
selfies_token_mutation

>  <best_score>  (55) 
nan

>  <qed_admet>  (55) 
0.6243

>  <sa_score_admet>  (55) 
3.45

>  <mw_admet>  (55) 
290.396

>  <logp_admet>  (55) 
1.1488

>  <tpsa_admet>  (55) 
87.16

>  <hbd_admet>  (55) 
3

>  <hba_admet>  (55) 
7

>  <rotatable_bonds_admet>  (55) 
0

>  <lipinski_violations>  (55) 
0

>  <veber_pass>  (55) 
True

>  <admet_score>  (55) 
0.830935

>  <synthesis_score>  (55) 
0.727778

>  <safety_proxy_score>  (55) 
1.0

>  <main_risk>  (55) 
no_major_descriptor_risk

>  <pose_score>  (55) 
0.5

>  <pose_decision>  (55) 
nan

>  <contacts_within_4A>  (55) 
nan

>  <hard_clashes_lt_1_8A>  (55) 
nan

>  <smiles>  (55) 
C[C@@H]1CC2=NCSC3=C(N=CC3CC(N)=NNC=C2)N1

>  <docking_score>  (55) 
nan

>  <diversity_cluster>  (55) 
scaffold_52c9af2e

>  <docking_score_scaled>  (55) 
0.0

>  <novelty_score>  (55) 
1.0

>  <final_weighted_score>  (55) 
0.500354

>  <rank>  (55) 
1071

>  <decision>  (55) 
await_docking

>  <diverse_rank>  (55) 
725

>  <selection_tier>  (55) 
await_docking

$$$$
CAND_5b2ed42749
     RDKit          3D

 55 55  0  0  0  0  0  0  0  0999 V2000
   -5.6482   -0.7362    1.3300 C   0  0  0  0  0  0  0  0  0  0  0  0
   -4.9739    0.6223    1.4553 C   0  0  0  0  0  0  0  0  0  0  0  0
   -3.5630    0.5481    2.0501 C   0  0  0  0  0  0  0  0  0  0  0  0
   -2.5741   -0.2722    1.2445 C   0  0  0  0  0  0  0  0  0  0  0  0
   -2.0440   -1.3977    1.7630 C   0  0  0  0  0  0  0  0  0  0  0  0
   -1.1570   -2.2046    1.0952 N   0  0  0  0  0  0  0  0  0  0  0  0
   -0.6671   -3.1869    1.7773 C   0  0  0  0  0  0  0  0  0  0  0  0
    0.1748   -4.1894    1.3562 N   0  0  0  0  0  0  0  0  0  0  0  0
    0.8637   -4.3326    0.1767 C   0  0  0  0  0  0  0  0  0  0  0  0
    1.4549   -3.4558   -0.6427 C   0  0  0  0  0  0  0  0  0  0  0  0
    1.6241   -2.0266   -0.3216 C   0  0  0  0  0  0  0  0  0  0  0  0
    2.1539   -1.6387    0.7135 O   0  0  0  0  0  0  0  0  0  0  0  0
    1.2405   -1.2028   -1.3462 N   0  0  0  0  0  0  0  0  0  0  0  0
    1.2186    0.2546   -1.1998 C   0  0  1  0  0  0  0  0  0  0  0  0
    2.6260    0.8323   -1.4934 C   0  0  0  0  0  0  0  0  0  0  0  0
    2.8578    1.6733   -2.3581 O   0  0  0  0  0  0  0  0  0  0  0  0
    3.6065    0.3816   -0.6317 N   0  0  0  0  0  0  0  0  0  0  0  0
    4.9898    0.7971   -0.7355 C   0  0  0  0  0  0  0  0  0  0  0  0
    5.2180    2.2113   -0.2102 C   0  0  0  0  0  0  0  0  0  0  0  0
    6.6439    2.5497   -0.2580 C   0  0  0  0  0  0  0  0  0  0  0  0
    7.7752    2.8068   -0.2867 N   0  0  0  0  0  0  0  0  0  0  0  0
    0.1135    0.8602   -2.0865 C   0  0  0  0  0  0  0  0  0  0  0  0
   -0.7429    1.9554   -1.4080 C   0  0  0  0  0  0  0  0  0  0  0  0
    0.0685    3.2389   -1.2056 C   0  0  0  0  0  0  0  0  0  0  0  0
   -1.3925    1.5371   -0.0696 C   0  0  0  0  0  0  0  0  0  0  0  0
   -2.2077    0.2382   -0.1349 C   0  0  0  0  0  0  0  0  0  0  0  0
   -6.6774   -0.6133    0.9778 H   0  0  0  0  0  0  0  0  0  0  0  0
   -5.6803   -1.2491    2.2966 H   0  0  0  0  0  0  0  0  0  0  0  0
   -5.1265   -1.3786    0.6142 H   0  0  0  0  0  0  0  0  0  0  0  0
   -5.5887    1.2584    2.1038 H   0  0  0  0  0  0  0  0  0  0  0  0
   -4.9527    1.1110    0.4748 H   0  0  0  0  0  0  0  0  0  0  0  0
   -3.1726    1.5664    2.1640 H   0  0  0  0  0  0  0  0  0  0  0  0
   -3.6417    0.1539    3.0720 H   0  0  0  0  0  0  0  0  0  0  0  0
   -2.3525   -1.6953    2.7652 H   0  0  0  0  0  0  0  0  0  0  0  0
   -0.9478   -3.3520    2.8353 H   0  0  0  0  0  0  0  0  0  0  0  0
    0.2513   -4.9868    1.9794 H   0  0  0  0  0  0  0  0  0  0  0  0
    0.9244   -5.3849   -0.0966 H   0  0  0  0  0  0  0  0  0  0  0  0
    1.9280   -3.7909   -1.5577 H   0  0  0  0  0  0  0  0  0  0  0  0
    0.8622   -1.6079   -2.1914 H   0  0  0  0  0  0  0  0  0  0  0  0
    1.0265    0.4616   -0.1430 H   0  0  0  0  0  0  0  0  0  0  0  0
    3.3333   -0.3015    0.0800 H   0  0  0  0  0  0  0  0  0  0  0  0
    5.5826    0.0710   -0.1674 H   0  0  0  0  0  0  0  0  0  0  0  0
    5.2939    0.7239   -1.7868 H   0  0  0  0  0  0  0  0  0  0  0  0
    4.6454    2.9371   -0.7982 H   0  0  0  0  0  0  0  0  0  0  0  0
    4.8537    2.2871    0.8211 H   0  0  0  0  0  0  0  0  0  0  0  0
   -0.5704    0.0721   -2.4266 H   0  0  0  0  0  0  0  0  0  0  0  0
    0.5368    1.2670   -3.0134 H   0  0  0  0  0  0  0  0  0  0  0  0
   -1.5566    2.1962   -2.1057 H   0  0  0  0  0  0  0  0  0  0  0  0
   -0.5706    4.0441   -0.8275 H   0  0  0  0  0  0  0  0  0  0  0  0
    0.5039    3.5786   -2.1512 H   0  0  0  0  0  0  0  0  0  0  0  0
    0.8821    3.0932   -0.4876 H   0  0  0  0  0  0  0  0  0  0  0  0
   -0.6271    1.4577    0.7119 H   0  0  0  0  0  0  0  0  0  0  0  0
   -2.0551    2.3514    0.2533 H   0  0  0  0  0  0  0  0  0  0  0  0
   -3.1143    0.4002   -0.7287 H   0  0  0  0  0  0  0  0  0  0  0  0
   -1.6493   -0.5342   -0.6696 H   0  0  0  0  0  0  0  0  0  0  0  0
  1  2  1  0
  2  3  1  0
  3  4  1  0
  4  5  2  3
  5  6  1  0
  6  7  2  3
  7  8  1  0
  8  9  1  0
  9 10  2  3
 10 11  1  0
 11 12  2  0
 11 13  1  0
 13 14  1  0
 14 15  1  0
 15 16  2  0
 15 17  1  0
 17 18  1  0
 18 19  1  0
 19 20  1  0
 20 21  3  0
 14 22  1  0
 22 23  1  0
 23 24  1  0
 23 25  1  0
 25 26  1  0
 26  4  1  0
  1 27  1  0
  1 28  1  0
  1 29  1  0
  2 30  1  0
  2 31  1  0
  3 32  1  0
  3 33  1  0
  5 34  1  0
  7 35  1  0
  8 36  1  0
  9 37  1  0
 10 38  1  0
 13 39  1  0
 14 40  1  1
 17 41  1  0
 18 42  1  0
 18 43  1  0
 19 44  1  0
 19 45  1  0
 22 46  1  0
 22 47  1  0
 23 48  1  0
 24 49  1  0
 24 50  1  0
 24 51  1  0
 25 52  1  0
 25 53  1  0
 26 54  1  0
 26 55  1  0
M  END
>  <candidate_id>  (56) 
CAND_5b2ed42749

>  <source_generator>  (56) 
selfies

>  <parent_mol_id>  (56) 
JAK2_c385760536

>  <canonical_smiles>  (56) 
CCCC1=CN=CNC=CC(=O)N[C@@H](C(=O)NCCC#N)CC(C)CC1

>  <inchikey>  (56) 
VDTAVMBXZUEDLU-OMOCHNIRSA-N

>  <valid_rdkit>  (56) 
True

>  <unique_flag>  (56) 
True

>  <novel_flag>  (56) 
True

>  <mw>  (56) 
359.474

>  <logp>  (56) 
2.1367

>  <tpsa>  (56) 
106.38

>  <hbd>  (56) 
3

>  <hba>  (56) 
5

>  <rotatable_bonds>  (56) 
5

>  <qed>  (56) 
0.6538

>  <sa_score>  (56) 
3.628

>  <murcko_scaffold>  (56) 
O=C1C=CNC=NC=CCCCCCN1

>  <max_ring_size>  (56) 
14

>  <has_macrocycle_12_20>  (56) 
True

>  <has_constrained_ring_8_11>  (56) 
False

>  <passes_basic_filters>  (56) 
True

>  <generation_notes>  (56) 
selfies_token_mutation

>  <best_score>  (56) 
nan

>  <qed_admet>  (56) 
0.6538

>  <sa_score_admet>  (56) 
3.628

>  <mw_admet>  (56) 
359.474

>  <logp_admet>  (56) 
2.1367

>  <tpsa_admet>  (56) 
106.38

>  <hbd_admet>  (56) 
3

>  <hba_admet>  (56) 
5

>  <rotatable_bonds_admet>  (56) 
5

>  <lipinski_violations>  (56) 
0

>  <veber_pass>  (56) 
True

>  <admet_score>  (56) 
0.84421

>  <synthesis_score>  (56) 
0.708

>  <safety_proxy_score>  (56) 
1.0

>  <main_risk>  (56) 
no_major_descriptor_risk

>  <pose_score>  (56) 
0.5

>  <pose_decision>  (56) 
nan

>  <contacts_within_4A>  (56) 
nan

>  <hard_clashes_lt_1_8A>  (56) 
nan

>  <smiles>  (56) 
CCCC1=CN=CNC=CC(=O)N[C@@H](C(=O)NCCC#N)CC(C)CC1

>  <docking_score>  (56) 
nan

>  <diversity_cluster>  (56) 
scaffold_3ea12914

>  <docking_score_scaled>  (56) 
0.0

>  <novelty_score>  (56) 
1.0

>  <final_weighted_score>  (56) 
0.500042

>  <rank>  (56) 
1090

>  <decision>  (56) 
await_docking

>  <diverse_rank>  (56) 
734

>  <selection_tier>  (56) 
await_docking

$$$$
CAND_34c64f09be
     RDKit          3D

 59 62  0  0  0  0  0  0  0  0999 V2000
   -2.6910    1.1171    0.8594 C   0  0  0  0  0  0  0  0  0  0  0  0
   -2.0172    0.5539   -0.2928 N   0  0  0  0  0  0  0  0  0  0  0  0
   -2.7763    0.1075   -1.3702 C   0  0  0  0  0  0  0  0  0  0  0  0
   -2.2562    0.2404   -2.6228 N   0  0  0  0  0  0  0  0  0  0  0  0
   -2.9702   -0.1565   -3.6926 C   0  0  0  0  0  0  0  0  0  0  0  0
   -4.1920   -0.7053   -3.7111 N   0  0  0  0  0  0  0  0  0  0  0  0
   -4.6746   -0.8465   -2.4699 C   0  0  0  0  0  0  0  0  0  0  0  0
   -5.8939   -1.3960   -2.1844 N   0  0  0  0  0  0  0  0  0  0  0  0
   -6.0834   -1.4255   -0.8285 C   0  0  0  0  0  0  0  0  0  0  0  0
   -4.9625   -0.8763   -0.2415 C   0  0  0  0  0  0  0  0  0  0  0  0
   -4.0600   -0.4844   -1.2781 C   0  0  0  0  0  0  0  0  0  0  0  0
   -0.5609    0.6539   -0.4799 C   0  0  1  0  0  0  0  0  0  0  0  0
   -0.0935    2.1192   -0.7276 C   0  0  0  0  0  0  0  0  0  0  0  0
    1.1774    2.3674   -0.0211 N   0  0  0  0  0  0  0  0  0  0  0  0
    1.0284    2.3163    1.4345 C   0  0  0  0  0  0  0  0  0  0  0  0
    0.4697    0.9523    1.8797 C   0  0  0  0  0  0  0  0  0  0  0  0
    0.2540    0.0093    0.6806 C   0  0  1  0  0  0  0  0  0  0  0  0
   -0.1103   -1.4211    1.0936 C   0  0  0  0  0  0  0  0  0  0  0  0
    0.0804   -2.4797   -0.0027 C   0  0  0  0  0  0  0  0  0  0  0  0
    1.3863   -2.4755   -0.8218 C   0  0  0  0  0  0  0  0  0  0  0  0
    2.7059   -2.7541   -0.0800 C   0  0  0  0  0  0  0  0  0  0  0  0
    3.3598   -1.5945    0.6867 C   0  0  0  0  0  0  0  0  0  0  0  0
    3.7587   -0.3847   -0.1801 C   0  0  0  0  0  0  0  0  0  0  0  0
    3.9535    0.8849    0.6729 C   0  0  0  0  0  0  0  0  0  0  0  0
    3.7340    2.2000   -0.1020 C   0  0  0  0  0  0  0  0  0  0  0  0
    4.0359    3.3804    0.7183 C   0  0  0  0  0  0  0  0  0  0  0  0
    4.2814    4.2919    1.3944 N   0  0  0  0  0  0  0  0  0  0  0  0
    2.3554    2.3384   -0.7595 C   0  0  0  0  0  0  0  0  0  0  0  0
    2.3168    2.3549   -1.9969 O   0  0  0  0  0  0  0  0  0  0  0  0
   -3.6533    1.5707    0.5954 H   0  0  0  0  0  0  0  0  0  0  0  0
   -2.8561    0.3508    1.6227 H   0  0  0  0  0  0  0  0  0  0  0  0
   -2.1093    1.9237    1.3131 H   0  0  0  0  0  0  0  0  0  0  0  0
   -2.4952   -0.0119   -4.6580 H   0  0  0  0  0  0  0  0  0  0  0  0
   -6.5321   -1.7364   -2.8889 H   0  0  0  0  0  0  0  0  0  0  0  0
   -6.9872   -1.8393   -0.4015 H   0  0  0  0  0  0  0  0  0  0  0  0
   -4.8087   -0.7786    0.8239 H   0  0  0  0  0  0  0  0  0  0  0  0
   -0.2603    0.0810   -1.3674 H   0  0  0  0  0  0  0  0  0  0  0  0
    0.0041    2.2930   -1.8046 H   0  0  0  0  0  0  0  0  0  0  0  0
   -0.8215    2.8527   -0.3630 H   0  0  0  0  0  0  0  0  0  0  0  0
    1.9636    2.5290    1.9505 H   0  0  0  0  0  0  0  0  0  0  0  0
    0.3302    3.1120    1.7207 H   0  0  0  0  0  0  0  0  0  0  0  0
    1.1796    0.4979    2.5823 H   0  0  0  0  0  0  0  0  0  0  0  0
   -0.4497    1.0878    2.4566 H   0  0  0  0  0  0  0  0  0  0  0  0
    1.2517   -0.0893    0.2635 H   0  0  0  0  0  0  0  0  0  0  0  0
   -1.1460   -1.4600    1.4500 H   0  0  0  0  0  0  0  0  0  0  0  0
    0.5052   -1.7164    1.9523 H   0  0  0  0  0  0  0  0  0  0  0  0
   -0.0403   -3.4694    0.4560 H   0  0  0  0  0  0  0  0  0  0  0  0
   -0.7500   -2.3816   -0.7139 H   0  0  0  0  0  0  0  0  0  0  0  0
    1.2743   -3.2830   -1.5595 H   0  0  0  0  0  0  0  0  0  0  0  0
    1.4559   -1.5655   -1.4231 H   0  0  0  0  0  0  0  0  0  0  0  0
    2.5512   -3.5899    0.6135 H   0  0  0  0  0  0  0  0  0  0  0  0
    3.4351   -3.1060   -0.8216 H   0  0  0  0  0  0  0  0  0  0  0  0
    2.6981   -1.2912    1.5017 H   0  0  0  0  0  0  0  0  0  0  0  0
    4.2665   -1.9729    1.1763 H   0  0  0  0  0  0  0  0  0  0  0  0
    4.6899   -0.6105   -0.7141 H   0  0  0  0  0  0  0  0  0  0  0  0
    3.0127   -0.2042   -0.9558 H   0  0  0  0  0  0  0  0  0  0  0  0
    4.9742    0.8690    1.0791 H   0  0  0  0  0  0  0  0  0  0  0  0
    3.3015    0.8508    1.5486 H   0  0  0  0  0  0  0  0  0  0  0  0
    4.4603    2.2000   -0.9281 H   0  0  0  0  0  0  0  0  0  0  0  0
  1  2  1  0
  2  3  1  0
  3  4  1  0
  4  5  2  0
  5  6  1  0
  6  7  2  0
  7  8  1  0
  8  9  1  0
  9 10  2  0
 10 11  1  0
  2 12  1  0
 12 13  1  0
 13 14  1  0
 14 15  1  0
 15 16  1  0
 16 17  1  0
 17 18  1  0
 18 19  1  0
 19 20  1  0
 20 21  1  0
 21 22  1  0
 22 23  1  0
 23 24  1  0
 24 25  1  0
 25 26  1  0
 26 27  3  0
 25 28  1  0
 28 29  2  0
 11  3  2  0
 17 12  1  0
 11  7  1  0
 28 14  1  0
  1 30  1  0
  1 31  1  0
  1 32  1  0
  5 33  1  0
  8 34  1  0
  9 35  1  0
 10 36  1  0
 12 37  1  6
 13 38  1  0
 13 39  1  0
 15 40  1  0
 15 41  1  0
 16 42  1  0
 16 43  1  0
 17 44  1  6
 18 45  1  0
 18 46  1  0
 19 47  1  0
 19 48  1  0
 20 49  1  0
 20 50  1  0
 21 51  1  0
 21 52  1  0
 22 53  1  0
 22 54  1  0
 23 55  1  0
 23 56  1  0
 24 57  1  0
 24 58  1  0
 25 59  1  0
M  END
>  <candidate_id>  (57) 
CAND_34c64f09be

>  <source_generator>  (57) 
macrocycle_linker

>  <parent_mol_id>  (57) 
JAK2_3f3d946705

>  <canonical_smiles>  (57) 
CN(c1ncnc2[nH]ccc12)[C@H]1CN2CC[C@H]1CCCCCCCC(C#N)C2=O

>  <inchikey>  (57) 
YMDQSWVIKLXGKY-HHBDYARMSA-N

>  <valid_rdkit>  (57) 
True

>  <unique_flag>  (57) 
True

>  <novel_flag>  (57) 
True

>  <mw>  (57) 
394.523

>  <logp>  (57) 
3.4953

>  <tpsa>  (57) 
88.91

>  <hbd>  (57) 
1

>  <hba>  (57) 
5

>  <rotatable_bonds>  (57) 
2

>  <qed>  (57) 
0.8421

>  <sa_score>  (57) 
4.647

>  <murcko_scaffold>  (57) 
O=C1CCCCCCCC[C@@H]2CCN1C[C@@H]2Nc1ncnc2[nH]ccc12

>  <max_ring_size>  (57) 
13

>  <has_macrocycle_12_20>  (57) 
True

>  <has_constrained_ring_8_11>  (57) 
False

>  <passes_basic_filters>  (57) 
True

>  <generation_notes>  (57) 
macrocycle_bridge_alkyl_path6_ring12

>  <best_score>  (57) 
nan

>  <qed_admet>  (57) 
0.8421

>  <sa_score_admet>  (57) 
4.647

>  <mw_admet>  (57) 
394.523

>  <logp_admet>  (57) 
3.4953

>  <tpsa_admet>  (57) 
88.91

>  <hbd_admet>  (57) 
1

>  <hba_admet>  (57) 
5

>  <rotatable_bonds_admet>  (57) 
2

>  <lipinski_violations>  (57) 
0

>  <veber_pass>  (57) 
True

>  <admet_score>  (57) 
0.928945

>  <synthesis_score>  (57) 
0.594778

>  <safety_proxy_score>  (57) 
1.0

>  <main_risk>  (57) 
no_major_descriptor_risk

>  <pose_score>  (57) 
0.5

>  <pose_decision>  (57) 
nan

>  <contacts_within_4A>  (57) 
nan

>  <hard_clashes_lt_1_8A>  (57) 
nan

>  <smiles>  (57) 
CN(c1ncnc2[nH]ccc12)[C@H]1CN2CC[C@H]1CCCCCCCC(C#N)C2=O

>  <docking_score>  (57) 
nan

>  <diversity_cluster>  (57) 
scaffold_a6261d65

>  <docking_score_scaled>  (57) 
0.0

>  <novelty_score>  (57) 
1.0

>  <final_weighted_score>  (57) 
0.500006

>  <rank>  (57) 
1092

>  <decision>  (57) 
await_docking

>  <diverse_rank>  (57) 
736

>  <selection_tier>  (57) 
await_docking

$$$$
CAND_1eac1398e4
     RDKit          3D

 50 51  0  0  0  0  0  0  0  0999 V2000
    2.7700    0.2346   -1.7676 O   0  0  0  0  0  0  0  0  0  0  0  0
    2.9176   -0.0328   -0.5826 C   0  0  0  0  0  0  0  0  0  0  0  0
    4.1031   -0.7595   -0.0620 C   0  0  0  0  0  0  0  0  0  0  0  0
    5.0868   -1.1357   -0.8948 C   0  0  0  0  0  0  0  0  0  0  0  0
    6.3158   -1.8726   -0.4548 C   0  0  0  0  0  0  0  0  0  0  0  0
    7.5376   -1.0123   -0.5908 C   0  0  0  0  0  0  0  0  0  0  0  0
    8.3086   -0.5436    0.3960 C   0  0  0  0  0  0  0  0  0  0  0  0
    8.0543   -0.8161    2.0662 Cl  0  0  0  0  0  0  0  0  0  0  0  0
    2.0100    0.2753    0.3966 N   0  0  0  0  0  0  0  0  0  0  0  0
    0.7536    0.9552    0.0942 C   0  0  0  0  0  0  0  0  0  0  0  0
    0.3287    1.6722    1.3528 C   0  0  0  0  0  0  0  0  0  0  0  0
   -0.4275    2.7738    1.4200 C   0  0  0  0  0  0  0  0  0  0  0  0
   -0.9384    3.5120    0.3011 C   0  0  0  0  0  0  0  0  0  0  0  0
   -1.6417    3.0718   -0.7498 C   0  0  0  0  0  0  0  0  0  0  0  0
   -2.1185    1.7658   -1.1387 C   0  0  0  0  0  0  0  0  0  0  0  0
   -1.4948    0.5768   -1.1650 C   0  0  0  0  0  0  0  0  0  0  0  0
   -0.3045   -0.0317   -0.4488 C   0  0  0  0  0  0  0  0  0  0  0  0
   -0.8803   -0.9370    0.7002 C   0  0  0  0  0  0  0  0  0  0  0  0
   -0.3185   -1.1129    1.7817 O   0  0  0  0  0  0  0  0  0  0  0  0
   -2.1074   -1.5227    0.4044 N   0  0  0  0  0  0  0  0  0  0  0  0
   -3.1084   -1.7309    1.3209 C   0  0  0  0  0  0  0  0  0  0  0  0
   -4.3724   -1.9907    0.9473 C   0  0  0  0  0  0  0  0  0  0  0  0
   -4.7933   -2.2082   -0.4200 C   0  0  0  0  0  0  0  0  0  0  0  0
   -5.5507   -1.4347   -1.2131 C   0  0  0  0  0  0  0  0  0  0  0  0
   -6.2012   -0.1633   -0.9746 C   0  0  0  0  0  0  0  0  0  0  0  0
   -5.6571    1.0456   -0.7737 C   0  0  0  0  0  0  0  0  0  0  0  0
   -4.2095    1.2560   -0.6259 C   0  0  0  0  0  0  0  0  0  0  0  0
   -3.4426    1.7773   -1.5376 N   0  0  0  0  0  0  0  0  0  0  0  0
    4.1562   -0.9655    0.9998 H   0  0  0  0  0  0  0  0  0  0  0  0
    5.0071   -0.9082   -1.9572 H   0  0  0  0  0  0  0  0  0  0  0  0
    6.1938   -2.2512    0.5658 H   0  0  0  0  0  0  0  0  0  0  0  0
    6.4391   -2.7587   -1.0890 H   0  0  0  0  0  0  0  0  0  0  0  0
    7.8167   -0.7529   -1.6106 H   0  0  0  0  0  0  0  0  0  0  0  0
    9.1803    0.0751    0.2194 H   0  0  0  0  0  0  0  0  0  0  0  0
    2.1413   -0.0785    1.3353 H   0  0  0  0  0  0  0  0  0  0  0  0
    0.9889    1.6897   -0.6871 H   0  0  0  0  0  0  0  0  0  0  0  0
    0.6392    1.2390    2.3025 H   0  0  0  0  0  0  0  0  0  0  0  0
   -0.6427    3.2012    2.3982 H   0  0  0  0  0  0  0  0  0  0  0  0
   -0.7624    4.5861    0.3667 H   0  0  0  0  0  0  0  0  0  0  0  0
   -1.9649    3.8390   -1.4573 H   0  0  0  0  0  0  0  0  0  0  0  0
   -2.0415   -0.1682   -1.7453 H   0  0  0  0  0  0  0  0  0  0  0  0
    0.1776   -0.7148   -1.1611 H   0  0  0  0  0  0  0  0  0  0  0  0
   -2.3547   -1.6527   -0.5670 H   0  0  0  0  0  0  0  0  0  0  0  0
   -2.8478   -1.5788    2.3665 H   0  0  0  0  0  0  0  0  0  0  0  0
   -5.1439   -2.0843    1.7082 H   0  0  0  0  0  0  0  0  0  0  0  0
   -4.4480   -3.1580   -0.8326 H   0  0  0  0  0  0  0  0  0  0  0  0
   -5.7846   -1.8369   -2.2015 H   0  0  0  0  0  0  0  0  0  0  0  0
   -7.2839   -0.2013   -1.0990 H   0  0  0  0  0  0  0  0  0  0  0  0
   -6.2697    1.9361   -0.6968 H   0  0  0  0  0  0  0  0  0  0  0  0
   -3.8156    0.9317    0.3568 H   0  0  0  0  0  0  0  0  0  0  0  0
  1  2  2  0
  2  3  1  0
  3  4  2  3
  4  5  1  0
  5  6  1  0
  6  7  2  3
  7  8  1  0
  2  9  1  0
  9 10  1  0
 10 11  1  0
 11 12  2  3
 12 13  1  0
 13 14  2  3
 14 15  1  0
 15 16  2  3
 16 17  1  0
 17 18  1  0
 18 19  2  0
 18 20  1  0
 20 21  1  0
 21 22  2  3
 22 23  1  0
 23 24  2  3
 24 25  1  0
 25 26  2  3
 26 27  1  0
 27 28  2  3
 17 10  1  0
 28 15  1  0
  3 29  1  0
  4 30  1  0
  5 31  1  0
  5 32  1  0
  6 33  1  0
  7 34  1  0
  9 35  1  0
 10 36  1  0
 11 37  1  0
 12 38  1  0
 13 39  1  0
 14 40  1  0
 16 41  1  0
 17 42  1  0
 20 43  1  0
 21 44  1  0
 22 45  1  0
 23 46  1  0
 24 47  1  0
 25 48  1  0
 26 49  1  0
 27 50  1  0
M  END
>  <candidate_id>  (58) 
CAND_1eac1398e4

>  <source_generator>  (58) 
selfies

>  <parent_mol_id>  (58) 
JAK2_be1b46c1d1

>  <canonical_smiles>  (58) 
O=C(C=CCC=CCl)NC1C=CC=CC2=CC1C(=O)NC=CC=CC=CC=N2

>  <inchikey>  (58) 
KQHWVMYEXMXLMQ-UHFFFAOYSA-N

>  <valid_rdkit>  (58) 
True

>  <unique_flag>  (58) 
True

>  <novel_flag>  (58) 
True

>  <mw>  (58) 
395.89

>  <logp>  (58) 
3.6228

>  <tpsa>  (58) 
70.56

>  <hbd>  (58) 
2

>  <hba>  (58) 
3

>  <rotatable_bonds>  (58) 
4

>  <qed>  (58) 
0.7135

>  <sa_score>  (58) 
3.955

>  <murcko_scaffold>  (58) 
O=C1NC=CC=CC=CC=NC2=CC1CC=CC=C2

>  <max_ring_size>  (58) 
13

>  <has_macrocycle_12_20>  (58) 
True

>  <has_constrained_ring_8_11>  (58) 
False

>  <passes_basic_filters>  (58) 
True

>  <generation_notes>  (58) 
selfies_token_mutation

>  <best_score>  (58) 
nan

>  <qed_admet>  (58) 
0.7135

>  <sa_score_admet>  (58) 
3.955

>  <mw_admet>  (58) 
395.89

>  <logp_admet>  (58) 
3.6228

>  <tpsa_admet>  (58) 
70.56

>  <hbd_admet>  (58) 
2

>  <hba_admet>  (58) 
3

>  <rotatable_bonds_admet>  (58) 
4

>  <lipinski_violations>  (58) 
0

>  <veber_pass>  (58) 
True

>  <admet_score>  (58) 
0.871075

>  <synthesis_score>  (58) 
0.671667

>  <safety_proxy_score>  (58) 
1.0

>  <main_risk>  (58) 
no_major_descriptor_risk

>  <pose_score>  (58) 
0.5

>  <pose_decision>  (58) 
nan

>  <contacts_within_4A>  (58) 
nan

>  <hard_clashes_lt_1_8A>  (58) 
nan

>  <smiles>  (58) 
O=C(C=CCC=CCl)NC1C=CC=CC2=CC1C(=O)NC=CC=CC=CC=N2

>  <docking_score>  (58) 
nan

>  <diversity_cluster>  (58) 
scaffold_05950c3d

>  <docking_score_scaled>  (58) 
0.0

>  <novelty_score>  (58) 
1.0

>  <final_weighted_score>  (58) 
0.499965

>  <rank>  (58) 
1095

>  <decision>  (58) 
await_docking

>  <diverse_rank>  (58) 
738

>  <selection_tier>  (58) 
await_docking

$$$$
CAND_3b04a27187
     RDKit          3D

 42 42  0  0  0  0  0  0  0  0999 V2000
    7.2863    0.0885    3.0909 Cl  0  0  0  0  0  0  0  0  0  0  0  0
    6.1511    0.0050    1.7181 C   0  0  0  0  0  0  0  0  0  0  0  0
    5.0380   -0.9350    2.0382 C   0  0  0  0  0  0  0  0  0  0  0  0
    3.7405   -0.7292    1.7841 C   0  0  0  0  0  0  0  0  0  0  0  0
    3.1496    0.3452    1.1854 N   0  0  0  0  0  0  0  0  0  0  0  0
    1.7242    0.5707    1.0095 C   0  0  0  0  0  0  0  0  0  0  0  0
    0.9675   -0.5691    0.4865 N   0  0  0  0  0  0  0  0  0  0  0  0
    1.3122   -0.9722   -0.6823 C   0  0  0  0  0  0  0  0  0  0  0  0
    0.5771   -2.0492   -1.3898 C   0  0  0  0  0  0  0  0  0  0  0  0
   -0.7623   -1.9824   -1.3848 C   0  0  0  0  0  0  0  0  0  0  0  0
   -1.6330   -2.9598   -1.9960 C   0  0  0  0  0  0  0  0  0  0  0  0
   -2.9768   -3.0405   -1.9509 C   0  0  0  0  0  0  0  0  0  0  0  0
   -4.0669   -2.2246   -1.2876 C   0  0  0  0  0  0  0  0  0  0  0  0
   -3.6206   -1.0708   -0.4526 C   0  0  0  0  0  0  0  0  0  0  0  0
   -3.8892    0.2191   -0.7121 C   0  0  0  0  0  0  0  0  0  0  0  0
   -3.2037    1.2794   -0.0103 C   0  0  0  0  0  0  0  0  0  0  0  0
   -3.4944    2.5845   -0.1011 C   0  0  0  0  0  0  0  0  0  0  0  0
   -2.7766    3.6381    0.4239 N   0  0  0  0  0  0  0  0  0  0  0  0
   -1.4389    3.6742    0.7500 C   0  0  0  0  0  0  0  0  0  0  0  0
   -0.5621    2.7731    0.4698 N   0  0  0  0  0  0  0  0  0  0  0  0
    0.6723    3.0512    0.8844 N   0  0  0  0  0  0  0  0  0  0  0  0
    1.6806    2.0463   -0.0775 S   0  0  0  0  0  4  0  0  0  0  0  0
    6.7144   -0.3611    0.8551 H   0  0  0  0  0  0  0  0  0  0  0  0
    5.8127    1.0233    1.5128 H   0  0  0  0  0  0  0  0  0  0  0  0
    5.3138   -1.8756    2.5076 H   0  0  0  0  0  0  0  0  0  0  0  0
    3.0159   -1.4955    2.0601 H   0  0  0  0  0  0  0  0  0  0  0  0
    3.6956    1.1780    1.0070 H   0  0  0  0  0  0  0  0  0  0  0  0
    1.2986    0.8399    1.9820 H   0  0  0  0  0  0  0  0  0  0  0  0
    2.1782   -0.5671   -1.2355 H   0  0  0  0  0  0  0  0  0  0  0  0
    1.1553   -2.8197   -1.8761 H   0  0  0  0  0  0  0  0  0  0  0  0
   -1.2042   -1.1242   -0.8885 H   0  0  0  0  0  0  0  0  0  0  0  0
   -1.1153   -3.7338   -2.5630 H   0  0  0  0  0  0  0  0  0  0  0  0
   -3.4004   -3.8803   -2.5046 H   0  0  0  0  0  0  0  0  0  0  0  0
   -4.7496   -1.8803   -2.0745 H   0  0  0  0  0  0  0  0  0  0  0  0
   -4.6489   -2.8988   -0.6473 H   0  0  0  0  0  0  0  0  0  0  0  0
   -2.9799   -1.3175    0.3943 H   0  0  0  0  0  0  0  0  0  0  0  0
   -4.5318    0.5002   -1.5406 H   0  0  0  0  0  0  0  0  0  0  0  0
   -2.3199    0.9937    0.5649 H   0  0  0  0  0  0  0  0  0  0  0  0
   -4.3699    2.9200   -0.6464 H   0  0  0  0  0  0  0  0  0  0  0  0
   -3.2669    4.5169    0.4848 H   0  0  0  0  0  0  0  0  0  0  0  0
   -1.1735    4.6162    1.2658 H   0  0  0  0  0  0  0  0  0  0  0  0
    0.7008    1.6234   -0.9055 H   0  0  0  0  0  0  0  0  0  0  0  0
  1  2  1  0
  2  3  1  0
  3  4  2  3
  4  5  1  0
  5  6  1  0
  6  7  1  0
  7  8  2  3
  8  9  1  0
  9 10  2  3
 10 11  1  0
 11 12  2  3
 12 13  1  0
 13 14  1  0
 14 15  2  3
 15 16  1  0
 16 17  2  3
 17 18  1  0
 18 19  1  0
 19 20  2  3
 20 21  1  0
 21 22  2  3
 22  6  1  0
  2 23  1  0
  2 24  1  0
  3 25  1  0
  4 26  1  0
  5 27  1  0
  6 28  1  0
  8 29  1  0
  9 30  1  0
 10 31  1  0
 11 32  1  0
 12 33  1  0
 13 34  1  0
 13 35  1  0
 14 36  1  0
 15 37  1  0
 16 38  1  0
 17 39  1  0
 18 40  1  0
 19 41  1  0
 22 42  1  0
M  END
>  <candidate_id>  (59) 
CAND_3b04a27187

>  <source_generator>  (59) 
selfies

>  <parent_mol_id>  (59) 
JAK2_6f8843e888

>  <canonical_smiles>  (59) 
ClCC=CNC1N=CC=CC=CCC=CC=CNC=NN=[SH]1

>  <inchikey>  (59) 
MAVQBTWVBQXEQK-UHFFFAOYSA-N

>  <valid_rdkit>  (59) 
True

>  <unique_flag>  (59) 
True

>  <novel_flag>  (59) 
True

>  <mw>  (59) 
337.88

>  <logp>  (59) 
2.8003

>  <tpsa>  (59) 
61.14

>  <hbd>  (59) 
3

>  <hba>  (59) 
5

>  <rotatable_bonds>  (59) 
3

>  <qed>  (59) 
0.5475

>  <sa_score>  (59) 
3.075

>  <murcko_scaffold>  (59) 
C1=CC=NC[SH]=NN=CNC=CC=CCC=C1

>  <max_ring_size>  (59) 
17

>  <has_macrocycle_12_20>  (59) 
True

>  <has_constrained_ring_8_11>  (59) 
False

>  <passes_basic_filters>  (59) 
True

>  <generation_notes>  (59) 
selfies_token_mutation

>  <best_score>  (59) 
nan

>  <qed_admet>  (59) 
0.5475

>  <sa_score_admet>  (59) 
3.075

>  <mw_admet>  (59) 
337.88

>  <logp_admet>  (59) 
2.8003

>  <tpsa_admet>  (59) 
61.14

>  <hbd_admet>  (59) 
3

>  <hba_admet>  (59) 
5

>  <rotatable_bonds_admet>  (59) 
3

>  <lipinski_violations>  (59) 
0

>  <veber_pass>  (59) 
True

>  <admet_score>  (59) 
0.796375

>  <synthesis_score>  (59) 
0.769444

>  <safety_proxy_score>  (59) 
1.0

>  <main_risk>  (59) 
no_major_descriptor_risk

>  <pose_score>  (59) 
0.5

>  <pose_decision>  (59) 
nan

>  <contacts_within_4A>  (59) 
nan

>  <hard_clashes_lt_1_8A>  (59) 
nan

>  <smiles>  (59) 
ClCC=CNC1N=CC=CC=CCC=CC=CNC=NN=[SH]1

>  <docking_score>  (59) 
nan

>  <diversity_cluster>  (59) 
scaffold_2ed59be3

>  <docking_score_scaled>  (59) 
0.0

>  <novelty_score>  (59) 
1.0

>  <final_weighted_score>  (59) 
0.499692

>  <rank>  (59) 
1109

>  <decision>  (59) 
await_docking

>  <diverse_rank>  (59) 
746

>  <selection_tier>  (59) 
await_docking

$$$$
CAND_8be8c27cbd
     RDKit          3D

 38 40  0  0  0  0  0  0  0  0999 V2000
    6.3968    0.0536   -0.0227 C   0  0  0  0  0  0  0  0  0  0  0  0
    5.2044    0.1208    0.7550 O   0  0  0  0  0  0  0  0  0  0  0  0
    4.0877   -0.1979    0.0295 C   0  0  0  0  0  0  0  0  0  0  0  0
    2.8284    0.1960    0.3101 C   0  0  0  0  0  0  0  0  0  0  0  0
    1.7408   -0.2305   -0.5720 C   0  0  0  0  0  0  0  0  0  0  0  0
    0.4108   -0.0665   -0.3991 C   0  0  0  0  0  0  0  0  0  0  0  0
   -0.4556   -0.4639   -1.5060 C   0  0  0  0  0  0  0  0  0  0  0  0
   -1.4605   -1.3460   -1.4709 C   0  0  0  0  0  0  0  0  0  0  0  0
   -2.3151   -1.4730   -2.5395 O   0  0  0  0  0  0  0  0  0  0  0  0
   -3.5502   -2.1357   -2.2156 C   0  0  0  0  0  0  0  0  0  0  0  0
   -4.3186   -2.6537   -3.2538 O   0  0  0  0  0  0  0  0  0  0  0  0
   -4.8707   -1.4912   -2.7702 C   0  0  0  0  0  0  0  0  0  0  0  0
   -4.6651   -1.7285   -1.4837 C   0  0  0  0  0  0  0  0  0  0  0  0
   -4.9021   -0.9247   -0.3352 C   0  0  0  0  0  0  0  0  0  0  0  0
   -4.2299    0.1912   -0.0152 C   0  0  0  0  0  0  0  0  0  0  0  0
   -4.3656    0.8439    1.2717 C   0  0  0  0  0  0  0  0  0  0  0  0
   -3.3853    1.4793    1.9413 C   0  0  0  0  0  0  0  0  0  0  0  0
   -2.0656    1.6609    1.5973 N   0  0  0  0  0  0  0  0  0  0  0  0
   -1.4459    0.6419    1.1006 C   0  0  0  0  0  0  0  0  0  0  0  0
   -0.1583    0.6238    0.6570 N   0  0  0  0  0  0  0  0  0  0  0  0
    2.4137    1.0066    1.3434 O   0  0  0  0  0  0  0  0  0  0  0  0
    3.3669    1.4638    2.2934 C   0  0  0  0  0  0  0  0  0  0  0  0
    7.2296    0.3859    0.6037 H   0  0  0  0  0  0  0  0  0  0  0  0
    6.3335    0.7168   -0.8922 H   0  0  0  0  0  0  0  0  0  0  0  0
    6.5954   -0.9757   -0.3402 H   0  0  0  0  0  0  0  0  0  0  0  0
    4.3039   -0.8454   -0.8132 H   0  0  0  0  0  0  0  0  0  0  0  0
    2.0681   -0.7469   -1.4748 H   0  0  0  0  0  0  0  0  0  0  0  0
   -0.2995    0.1021   -2.4243 H   0  0  0  0  0  0  0  0  0  0  0  0
   -1.7076   -1.9496   -0.6087 H   0  0  0  0  0  0  0  0  0  0  0  0
   -5.6331   -1.3351    0.3591 H   0  0  0  0  0  0  0  0  0  0  0  0
   -3.4804    0.6001   -0.6906 H   0  0  0  0  0  0  0  0  0  0  0  0
   -5.3446    0.7839    1.7436 H   0  0  0  0  0  0  0  0  0  0  0  0
   -3.6483    1.9433    2.8915 H   0  0  0  0  0  0  0  0  0  0  0  0
   -1.9289   -0.3418    0.9885 H   0  0  0  0  0  0  0  0  0  0  0  0
    0.4751    1.2899    1.0940 H   0  0  0  0  0  0  0  0  0  0  0  0
    2.8317    2.0619    3.0374 H   0  0  0  0  0  0  0  0  0  0  0  0
    3.8338    0.6258    2.8202 H   0  0  0  0  0  0  0  0  0  0  0  0
    4.1105    2.1146    1.8234 H   0  0  0  0  0  0  0  0  0  0  0  0
  1  2  1  0
  2  3  1  0
  3  4  2  3
  4  5  1  0
  5  6  2  3
  6  7  1  0
  7  8  2  3
  8  9  1  0
  9 10  1  0
 10 11  1  0
 11 12  1  0
 12 13  2  0
 13 14  1  0
 14 15  2  3
 15 16  1  0
 16 17  2  3
 17 18  1  0
 18 19  2  3
 19 20  1  0
  4 21  1  0
 21 22  1  0
 20  6  1  0
 12 10  1  0
 13 10  1  0
  1 23  1  0
  1 24  1  0
  1 25  1  0
  3 26  1  0
  5 27  1  0
  7 28  1  0
  8 29  1  0
 14 30  1  0
 15 31  1  0
 16 32  1  0
 17 33  1  0
 19 34  1  0
 20 35  1  0
 22 36  1  0
 22 37  1  0
 22 38  1  0
M  END
>  <candidate_id>  (60) 
CAND_8be8c27cbd

>  <source_generator>  (60) 
selfies

>  <parent_mol_id>  (60) 
JAK2_ee18a170dc

>  <canonical_smiles>  (60) 
COC=C(C=C1C=COC23OC2=C3C=CC=CN=CN1)OC

>  <inchikey>  (60) 
NPQATFFVZAGCCG-UHFFFAOYSA-N

>  <valid_rdkit>  (60) 
True

>  <unique_flag>  (60) 
True

>  <novel_flag>  (60) 
True

>  <mw>  (60) 
300.314

>  <logp>  (60) 
2.2304

>  <tpsa>  (60) 
64.61

>  <hbd>  (60) 
1

>  <hba>  (60) 
6

>  <rotatable_bonds>  (60) 
3

>  <qed>  (60) 
0.6394

>  <sa_score>  (60) 
3.575

>  <murcko_scaffold>  (60) 
C=C1C=COC23OC2=C3C=CC=CN=CN1

>  <max_ring_size>  (60) 
13

>  <has_macrocycle_12_20>  (60) 
True

>  <has_constrained_ring_8_11>  (60) 
False

>  <passes_basic_filters>  (60) 
True

>  <generation_notes>  (60) 
selfies_token_mutation

>  <best_score>  (60) 
nan

>  <qed_admet>  (60) 
0.6394

>  <sa_score_admet>  (60) 
3.575

>  <mw_admet>  (60) 
300.314

>  <logp_admet>  (60) 
2.2304

>  <tpsa_admet>  (60) 
64.61

>  <hbd_admet>  (60) 
1

>  <hba_admet>  (60) 
6

>  <rotatable_bonds_admet>  (60) 
3

>  <lipinski_violations>  (60) 
0

>  <veber_pass>  (60) 
True

>  <admet_score>  (60) 
0.83773

>  <synthesis_score>  (60) 
0.713889

>  <safety_proxy_score>  (60) 
1.0

>  <main_risk>  (60) 
no_major_descriptor_risk

>  <pose_score>  (60) 
0.5

>  <pose_decision>  (60) 
nan

>  <contacts_within_4A>  (60) 
nan

>  <hard_clashes_lt_1_8A>  (60) 
nan

>  <smiles>  (60) 
COC=C(C=C1C=COC23OC2=C3C=CC=CN=CN1)OC

>  <docking_score>  (60) 
nan

>  <diversity_cluster>  (60) 
scaffold_a2591fb5

>  <docking_score_scaled>  (60) 
0.0

>  <novelty_score>  (60) 
1.0

>  <final_weighted_score>  (60) 
0.499629

>  <rank>  (60) 
1111

>  <decision>  (60) 
await_docking

>  <diverse_rank>  (60) 
748

>  <selection_tier>  (60) 
await_docking

$$$$
CAND_1b0430816b
     RDKit          3D

 57 60  0  0  0  0  0  0  0  0999 V2000
   -3.1431   -0.0360    1.2614 C   0  0  0  0  0  0  0  0  0  0  0  0
   -1.9198   -0.3083    0.4995 N   0  0  0  0  0  0  0  0  0  0  0  0
   -2.2650   -0.6826   -0.8106 C   0  0  0  0  0  0  0  0  0  0  0  0
   -2.2054   -1.9883   -1.1793 N   0  0  0  0  0  0  0  0  0  0  0  0
   -2.5558   -2.3316   -2.4361 C   0  0  0  0  0  0  0  0  0  0  0  0
   -2.9602   -1.5292   -3.4323 N   0  0  0  0  0  0  0  0  0  0  0  0
   -2.9996   -0.2497   -3.0376 C   0  0  0  0  0  0  0  0  0  0  0  0
   -3.3703    0.7980   -3.8357 N   0  0  0  0  0  0  0  0  0  0  0  0
   -3.2957    1.9695   -3.1263 C   0  0  0  0  0  0  0  0  0  0  0  0
   -2.8704    1.6598   -1.8514 C   0  0  0  0  0  0  0  0  0  0  0  0
   -2.6822    0.2486   -1.7838 C   0  0  0  0  0  0  0  0  0  0  0  0
   -0.8646   -1.1107    1.1654 C   0  0  1  0  0  0  0  0  0  0  0  0
    0.3464   -1.4432    0.2450 C   0  0  0  0  0  0  0  0  0  0  0  0
    1.5606   -1.8488    0.9641 N   0  0  0  0  0  0  0  0  0  0  0  0
    1.3343   -2.4358    2.2791 C   0  0  0  0  0  0  0  0  0  0  0  0
    0.5594   -1.4875    3.2058 C   0  0  0  0  0  0  0  0  0  0  0  0
   -0.3279   -0.4429    2.4656 C   0  0  1  0  0  0  0  0  0  0  0  0
    0.4905    0.8745    2.3224 C   0  0  0  0  0  0  0  0  0  0  0  0
   -0.1735    2.0929    1.6613 C   0  0  0  0  0  0  0  0  0  0  0  0
    0.2689    2.3506    0.2147 C   0  0  0  0  0  0  0  0  0  0  0  0
    1.7248    2.8199    0.0973 C   0  0  0  0  0  0  0  0  0  0  0  0
    2.3230    2.5898   -1.1814 O   0  0  0  0  0  0  0  0  0  0  0  0
    2.4417    1.2334   -1.6147 C   0  0  0  0  0  0  0  0  0  0  0  0
    3.2776    0.3499   -0.6841 C   0  0  0  0  0  0  0  0  0  0  0  0
    3.0535   -1.1536   -0.9331 C   0  0  0  0  0  0  0  0  0  0  0  0
    4.1895   -1.7440   -1.6588 C   0  0  0  0  0  0  0  0  0  0  0  0
    5.0569   -2.1810   -2.2952 N   0  0  0  0  0  0  0  0  0  0  0  0
    2.8478   -1.8443    0.4204 C   0  0  0  0  0  0  0  0  0  0  0  0
    3.8022   -2.3162    1.0414 O   0  0  0  0  0  0  0  0  0  0  0  0
   -3.8136    0.6551    0.7380 H   0  0  0  0  0  0  0  0  0  0  0  0
   -3.6916   -0.9642    1.4616 H   0  0  0  0  0  0  0  0  0  0  0  0
   -2.9232    0.4357    2.2222 H   0  0  0  0  0  0  0  0  0  0  0  0
   -2.5002   -3.3906   -2.6707 H   0  0  0  0  0  0  0  0  0  0  0  0
   -3.6488    0.6977   -4.8012 H   0  0  0  0  0  0  0  0  0  0  0  0
   -3.5466    2.9154   -3.5881 H   0  0  0  0  0  0  0  0  0  0  0  0
   -2.7064    2.3674   -1.0494 H   0  0  0  0  0  0  0  0  0  0  0  0
   -1.3243   -2.0661    1.4608 H   0  0  0  0  0  0  0  0  0  0  0  0
    0.1118   -2.2787   -0.4225 H   0  0  0  0  0  0  0  0  0  0  0  0
    0.5766   -0.5898   -0.3860 H   0  0  0  0  0  0  0  0  0  0  0  0
    2.2707   -2.7347    2.7607 H   0  0  0  0  0  0  0  0  0  0  0  0
    0.7576   -3.3555    2.1196 H   0  0  0  0  0  0  0  0  0  0  0  0
    1.2651   -0.9781    3.8739 H   0  0  0  0  0  0  0  0  0  0  0  0
   -0.0741   -2.0990    3.8614 H   0  0  0  0  0  0  0  0  0  0  0  0
   -1.1613   -0.2185    3.1408 H   0  0  0  0  0  0  0  0  0  0  0  0
    1.4532    0.6632    1.8549 H   0  0  0  0  0  0  0  0  0  0  0  0
    0.7419    1.1888    3.3460 H   0  0  0  0  0  0  0  0  0  0  0  0
    0.0839    2.9849    2.2479 H   0  0  0  0  0  0  0  0  0  0  0  0
   -1.2624    2.0159    1.7117 H   0  0  0  0  0  0  0  0  0  0  0  0
   -0.3676    3.1368   -0.2113 H   0  0  0  0  0  0  0  0  0  0  0  0
    0.0691    1.4708   -0.3916 H   0  0  0  0  0  0  0  0  0  0  0  0
    1.7444    3.9055    0.2519 H   0  0  0  0  0  0  0  0  0  0  0  0
    2.3688    2.4161    0.8814 H   0  0  0  0  0  0  0  0  0  0  0  0
    2.9283    1.2613   -2.5967 H   0  0  0  0  0  0  0  0  0  0  0  0
    1.4447    0.8277   -1.7979 H   0  0  0  0  0  0  0  0  0  0  0  0
    3.0564    0.5795    0.3588 H   0  0  0  0  0  0  0  0  0  0  0  0
    4.3338    0.6275   -0.8032 H   0  0  0  0  0  0  0  0  0  0  0  0
    2.1701   -1.3271   -1.5556 H   0  0  0  0  0  0  0  0  0  0  0  0
  1  2  1  0
  2  3  1  0
  3  4  1  0
  4  5  2  0
  5  6  1  0
  6  7  2  0
  7  8  1  0
  8  9  1  0
  9 10  2  0
 10 11  1  0
  2 12  1  0
 12 13  1  0
 13 14  1  0
 14 15  1  0
 15 16  1  0
 16 17  1  0
 17 18  1  0
 18 19  1  0
 19 20  1  0
 20 21  1  0
 21 22  1  0
 22 23  1  0
 23 24  1  0
 24 25  1  0
 25 26  1  0
 26 27  3  0
 25 28  1  0
 28 29  2  0
 11  3  2  0
 17 12  1  0
 11  7  1  0
 28 14  1  0
  1 30  1  0
  1 31  1  0
  1 32  1  0
  5 33  1  0
  8 34  1  0
  9 35  1  0
 10 36  1  0
 12 37  1  1
 13 38  1  0
 13 39  1  0
 15 40  1  0
 15 41  1  0
 16 42  1  0
 16 43  1  0
 17 44  1  1
 18 45  1  0
 18 46  1  0
 19 47  1  0
 19 48  1  0
 20 49  1  0
 20 50  1  0
 21 51  1  0
 21 52  1  0
 23 53  1  0
 23 54  1  0
 24 55  1  0
 24 56  1  0
 25 57  1  0
M  END
>  <candidate_id>  (61) 
CAND_1b0430816b

>  <source_generator>  (61) 
macrocycle_linker

>  <parent_mol_id>  (61) 
JAK2_3f3d946705

>  <canonical_smiles>  (61) 
CN(c1ncnc2[nH]ccc12)[C@H]1CN2CC[C@H]1CCCCOCCC(C#N)C2=O

>  <inchikey>  (61) 
NKBKRQLHZDYSIC-AGPBCMBSSA-N

>  <valid_rdkit>  (61) 
True

>  <unique_flag>  (61) 
True

>  <novel_flag>  (61) 
True

>  <mw>  (61) 
396.495

>  <logp>  (61) 
2.3416

>  <tpsa>  (61) 
98.14

>  <hbd>  (61) 
1

>  <hba>  (61) 
6

>  <rotatable_bonds>  (61) 
2

>  <qed>  (61) 
0.8366

>  <sa_score>  (61) 
4.658

>  <murcko_scaffold>  (61) 
O=C1CCCOCCCC[C@@H]2CCN1C[C@@H]2Nc1ncnc2[nH]ccc12

>  <max_ring_size>  (61) 
13

>  <has_macrocycle_12_20>  (61) 
True

>  <has_constrained_ring_8_11>  (61) 
False

>  <passes_basic_filters>  (61) 
True

>  <generation_notes>  (61) 
macrocycle_bridge_oxa_path6_ring12

>  <best_score>  (61) 
nan

>  <qed_admet>  (61) 
0.8366

>  <sa_score_admet>  (61) 
4.658

>  <mw_admet>  (61) 
396.495

>  <logp_admet>  (61) 
2.3416

>  <tpsa_admet>  (61) 
98.14

>  <hbd_admet>  (61) 
1

>  <hba_admet>  (61) 
6

>  <rotatable_bonds_admet>  (61) 
2

>  <lipinski_violations>  (61) 
0

>  <veber_pass>  (61) 
True

>  <admet_score>  (61) 
0.92647

>  <synthesis_score>  (61) 
0.593556

>  <safety_proxy_score>  (61) 
1.0

>  <main_risk>  (61) 
no_major_descriptor_risk

>  <pose_score>  (61) 
0.5

>  <pose_decision>  (61) 
nan

>  <contacts_within_4A>  (61) 
nan

>  <hard_clashes_lt_1_8A>  (61) 
nan

>  <smiles>  (61) 
CN(c1ncnc2[nH]ccc12)[C@H]1CN2CC[C@H]1CCCCOCCC(C#N)C2=O

>  <docking_score>  (61) 
nan

>  <diversity_cluster>  (61) 
scaffold_06aab4c9

>  <docking_score_scaled>  (61) 
0.0

>  <novelty_score>  (61) 
1.0

>  <final_weighted_score>  (61) 
0.499327

>  <rank>  (61) 
1123

>  <decision>  (61) 
await_docking

>  <diverse_rank>  (61) 
752

>  <selection_tier>  (61) 
await_docking

$$$$
CAND_780e7a8d6a
     RDKit          3D

 59 60  0  0  0  0  0  0  0  0999 V2000
   -2.2264    3.2484   -1.1865 N   0  0  0  0  0  0  0  0  0  0  0  0
   -2.9033    3.9113   -0.2029 C   0  0  0  0  0  0  0  0  0  0  0  0
   -3.6719    4.8290   -0.4737 O   0  0  0  0  0  0  0  0  0  0  0  0
   -2.5870    3.4907    1.2389 C   0  0  0  0  0  0  0  0  0  0  0  0
   -2.0673    2.1000    1.3474 N   0  0  0  0  0  0  0  0  0  0  0  0
   -3.0940    1.0423    1.2445 C   0  0  0  0  0  0  0  0  0  0  0  0
   -2.7617    0.0417    0.1349 C   0  0  0  0  0  0  0  0  0  0  0  0
   -3.7493   -1.1290    0.1156 C   0  0  0  0  0  0  0  0  0  0  0  0
   -3.4702   -2.0788   -1.0259 C   0  0  0  0  0  0  0  0  0  0  0  0
   -2.5162   -3.0242   -1.0792 C   0  0  0  0  0  0  0  0  0  0  0  0
   -1.5563   -3.2888   -0.0354 C   0  0  0  0  0  0  0  0  0  0  0  0
   -1.8868   -3.7454    1.1823 C   0  0  0  0  0  0  0  0  0  0  0  0
   -0.9266   -3.8669    2.3262 C   0  0  0  0  0  0  0  0  0  0  0  0
   -1.3664   -2.9432    3.3782 N   0  0  0  0  0  0  0  0  0  0  0  0
   -0.9689   -1.7285    3.1968 C   0  0  0  0  0  0  0  0  0  0  0  0
   -1.4163   -0.6419    4.0929 C   0  0  0  0  0  0  0  0  0  0  0  0
   -1.1341    0.6503    3.8807 C   0  0  0  0  0  0  0  0  0  0  0  0
   -0.3171    1.1805    2.8139 C   0  0  0  0  0  0  0  0  0  0  0  0
   -0.7410    1.8499    1.7203 C   0  0  0  0  0  0  0  0  0  0  0  0
    0.2842    2.3940    0.8334 C   0  0  0  0  0  0  0  0  0  0  0  0
    1.1656    1.6323    0.1640 C   0  0  0  0  0  0  0  0  0  0  0  0
    2.1552    2.1808   -0.7388 C   0  0  0  0  0  0  0  0  0  0  0  0
    3.0618    1.5023   -1.4624 C   0  0  0  0  0  0  0  0  0  0  0  0
    3.2573    0.0670   -1.5030 C   0  0  0  0  0  0  0  0  0  0  0  0
    4.1799   -0.6089   -2.2098 C   0  0  0  0  0  0  0  0  0  0  0  0
    5.1854   -0.0768   -3.1054 C   0  0  0  0  0  0  0  0  0  0  0  0
    6.0396   -0.8397   -3.7511 C   0  0  0  0  0  0  0  0  0  0  0  0
    6.3670   -2.1694   -3.8796 N   0  0  0  0  0  0  0  0  0  0  0  0
    7.0548   -1.3491   -4.5570 C   0  0  0  0  0  0  0  0  0  0  0  0
    8.0352   -1.1415   -5.4164 N   0  0  0  0  0  0  0  0  0  0  0  0
   -1.6132    2.4790   -0.9353 H   0  0  0  0  0  0  0  0  0  0  0  0
   -2.3757    3.4760   -2.1586 H   0  0  0  0  0  0  0  0  0  0  0  0
   -3.5023    3.5910    1.8365 H   0  0  0  0  0  0  0  0  0  0  0  0
   -1.8602    4.2074    1.6380 H   0  0  0  0  0  0  0  0  0  0  0  0
   -4.0729    1.4872    1.0269 H   0  0  0  0  0  0  0  0  0  0  0  0
   -3.2097    0.5344    2.2066 H   0  0  0  0  0  0  0  0  0  0  0  0
   -2.7845    0.5497   -0.8367 H   0  0  0  0  0  0  0  0  0  0  0  0
   -1.7404   -0.3350    0.2610 H   0  0  0  0  0  0  0  0  0  0  0  0
   -4.7731   -0.7513    0.0009 H   0  0  0  0  0  0  0  0  0  0  0  0
   -3.7334   -1.6591    1.0744 H   0  0  0  0  0  0  0  0  0  0  0  0
   -4.1107   -1.9517   -1.8974 H   0  0  0  0  0  0  0  0  0  0  0  0
   -2.3814   -3.5964   -1.9943 H   0  0  0  0  0  0  0  0  0  0  0  0
   -0.5199   -3.0736   -0.2828 H   0  0  0  0  0  0  0  0  0  0  0  0
   -2.9248   -3.9756    1.4137 H   0  0  0  0  0  0  0  0  0  0  0  0
   -0.9486   -4.8845    2.7239 H   0  0  0  0  0  0  0  0  0  0  0  0
    0.1120   -3.6719    2.0212 H   0  0  0  0  0  0  0  0  0  0  0  0
   -0.3187   -1.4407    2.3538 H   0  0  0  0  0  0  0  0  0  0  0  0
   -2.0390   -0.9523    4.9263 H   0  0  0  0  0  0  0  0  0  0  0  0
   -1.5371    1.3961    4.5615 H   0  0  0  0  0  0  0  0  0  0  0  0
    0.7548    1.0763    2.9949 H   0  0  0  0  0  0  0  0  0  0  0  0
    0.2716    3.4736    0.7010 H   0  0  0  0  0  0  0  0  0  0  0  0
    1.1280    0.5551    0.2947 H   0  0  0  0  0  0  0  0  0  0  0  0
    2.1542    3.2679   -0.8368 H   0  0  0  0  0  0  0  0  0  0  0  0
    3.7193    2.0959   -2.0911 H   0  0  0  0  0  0  0  0  0  0  0  0
    2.5845   -0.5394   -0.8981 H   0  0  0  0  0  0  0  0  0  0  0  0
    4.1765   -1.6973   -2.1165 H   0  0  0  0  0  0  0  0  0  0  0  0
    5.2496    0.9930   -3.2570 H   0  0  0  0  0  0  0  0  0  0  0  0
    8.5670   -1.9278   -5.7671 H   0  0  0  0  0  0  0  0  0  0  0  0
    8.3028   -0.2145   -5.7146 H   0  0  0  0  0  0  0  0  0  0  0  0
  1  2  1  0
  2  3  2  0
  2  4  1  0
  4  5  1  0
  5  6  1  0
  6  7  1  0
  7  8  1  0
  8  9  1  0
  9 10  2  3
 10 11  1  0
 11 12  2  3
 12 13  1  0
 13 14  1  0
 14 15  2  3
 15 16  1  0
 16 17  2  3
 17 18  1  0
 18 19  2  3
 19 20  1  0
 20 21  2  3
 21 22  1  0
 22 23  2  3
 23 24  1  0
 24 25  2  3
 25 26  1  0
 26 27  2  3
 27 28  1  0
 28 29  2  0
 29 30  1  0
 19  5  1  0
 29 27  1  0
  1 31  1  0
  1 32  1  0
  4 33  1  0
  4 34  1  0
  6 35  1  0
  6 36  1  0
  7 37  1  0
  7 38  1  0
  8 39  1  0
  8 40  1  0
  9 41  1  0
 10 42  1  0
 11 43  1  0
 12 44  1  0
 13 45  1  0
 13 46  1  0
 15 47  1  0
 16 48  1  0
 17 49  1  0
 18 50  1  0
 20 51  1  0
 21 52  1  0
 22 53  1  0
 23 54  1  0
 24 55  1  0
 25 56  1  0
 26 57  1  0
 30 58  1  0
 30 59  1  0
M  END
>  <candidate_id>  (62) 
CAND_780e7a8d6a

>  <source_generator>  (62) 
selfies

>  <parent_mol_id>  (62) 
JAK2_6635ff8a33

>  <canonical_smiles>  (62) 
NC(=O)CN1CCCC=CC=CCN=CC=CC=C1C=CC=CC=CC=C1N=C1N

>  <inchikey>  (62) 
QIJIFLKWWMNMFA-UHFFFAOYSA-N

>  <valid_rdkit>  (62) 
True

>  <unique_flag>  (62) 
True

>  <novel_flag>  (62) 
True

>  <mw>  (62) 
403.53

>  <logp>  (62) 
3.1141

>  <tpsa>  (62) 
97.07

>  <hbd>  (62) 
2

>  <hba>  (62) 
5

>  <rotatable_bonds>  (62) 
6

>  <qed>  (62) 
0.6669

>  <sa_score>  (62) 
3.747

>  <murcko_scaffold>  (62) 
C(=CC=CC1=CC=CC=NCC=CC=CCCCN1)C=CC=C1C=N1

>  <max_ring_size>  (62) 
15

>  <has_macrocycle_12_20>  (62) 
True

>  <has_constrained_ring_8_11>  (62) 
False

>  <passes_basic_filters>  (62) 
True

>  <generation_notes>  (62) 
selfies_token_mutation

>  <best_score>  (62) 
nan

>  <qed_admet>  (62) 
0.6669

>  <sa_score_admet>  (62) 
3.747

>  <mw_admet>  (62) 
403.53

>  <logp_admet>  (62) 
3.1141

>  <tpsa_admet>  (62) 
97.07

>  <hbd_admet>  (62) 
2

>  <hba_admet>  (62) 
5

>  <rotatable_bonds_admet>  (62) 
6

>  <lipinski_violations>  (62) 
0

>  <veber_pass>  (62) 
True

>  <admet_score>  (62) 
0.850105

>  <synthesis_score>  (62) 
0.694778

>  <safety_proxy_score>  (62) 
1.0

>  <main_risk>  (62) 
no_major_descriptor_risk

>  <pose_score>  (62) 
0.5

>  <pose_decision>  (62) 
nan

>  <contacts_within_4A>  (62) 
nan

>  <hard_clashes_lt_1_8A>  (62) 
nan

>  <smiles>  (62) 
NC(=O)CN1CCCC=CC=CCN=CC=CC=C1C=CC=CC=CC=C1N=C1N

>  <docking_score>  (62) 
nan

>  <diversity_cluster>  (62) 
scaffold_7159c4f9

>  <docking_score_scaled>  (62) 
0.0

>  <novelty_score>  (62) 
1.0

>  <final_weighted_score>  (62) 
0.499238

>  <rank>  (62) 
1125

>  <decision>  (62) 
await_docking

>  <diverse_rank>  (62) 
754

>  <selection_tier>  (62) 
await_docking

$$$$
CAND_8707636f6f
     RDKit          3D

 46 48  0  0  0  0  0  0  0  0999 V2000
    2.4119   -1.0056   -5.4438 C   0  0  0  0  0  0  0  0  0  0  0  0
    1.4779   -1.0447   -4.4827 C   0  0  0  0  0  0  0  0  0  0  0  0
    1.2270   -0.0522   -3.3725 C   0  0  2  0  0  0  0  0  0  0  0  0
    2.2151    1.1538   -3.2975 C   0  0  0  0  0  0  0  0  0  0  0  0
    2.2006    1.9596   -2.0168 C   0  0  0  0  0  0  0  0  0  0  0  0
    1.0916    2.3480   -1.3707 C   0  0  0  0  0  0  0  0  0  0  0  0
   -0.1088    2.2018   -1.9721 F   0  0  0  0  0  0  0  0  0  0  0  0
    1.1115    2.8167   -0.0069 C   0  0  0  0  0  0  0  0  0  0  0  0
    0.1414    2.6374    0.9031 C   0  0  0  0  0  0  0  0  0  0  0  0
   -1.0804    2.0681    0.7019 N   0  0  0  0  0  0  0  0  0  0  0  0
   -1.2863    0.7874    0.8695 C   0  0  0  0  0  0  0  0  0  0  0  0
   -0.3508   -0.3634    1.3034 C   0  0  0  0  0  0  0  0  0  0  0  0
    0.6257   -0.7628    0.2063 C   0  0  0  0  0  0  0  0  0  0  0  0
    0.3807   -0.6525   -1.1048 C   0  0  0  0  0  0  0  0  0  0  0  0
    1.2761   -0.8299   -2.1293 N   0  0  0  0  0  0  0  0  0  0  0  0
    0.3651   -0.0456    2.6383 C   0  0  0  0  0  0  0  0  0  0  0  0
   -0.7170   -0.2412    3.7276 C   0  0  0  0  0  0  0  0  0  0  0  0
   -1.2498    1.0299    4.1814 N   0  0  0  0  0  0  0  0  0  0  0  0
   -1.6373   -1.1770    3.1175 N   0  0  0  0  0  0  0  0  0  0  0  0
   -2.8348   -1.6096    3.6171 C   0  0  0  0  0  0  0  0  0  0  0  0
   -3.7330   -2.2214    2.8434 C   0  0  0  0  0  0  0  0  0  0  0  0
   -3.3780   -2.2906    1.4065 C   0  0  0  0  0  0  0  0  0  0  0  0
   -2.2589   -1.9750    0.8468 N   0  0  0  0  0  0  0  0  0  0  0  0
   -1.2011   -1.5748    1.7847 C   0  0  0  0  0  0  0  0  0  0  0  0
    3.1348   -0.2024   -5.5307 H   0  0  0  0  0  0  0  0  0  0  0  0
    2.4663   -1.7987   -6.1843 H   0  0  0  0  0  0  0  0  0  0  0  0
    0.7870   -1.8880   -4.4858 H   0  0  0  0  0  0  0  0  0  0  0  0
    0.2133    0.3397   -3.5282 H   0  0  0  0  0  0  0  0  0  0  0  0
    2.0617    1.8248   -4.1514 H   0  0  0  0  0  0  0  0  0  0  0  0
    3.2393    0.7669   -3.3913 H   0  0  0  0  0  0  0  0  0  0  0  0
    3.1658    2.0720   -1.5306 H   0  0  0  0  0  0  0  0  0  0  0  0
    2.0297    3.2975    0.3189 H   0  0  0  0  0  0  0  0  0  0  0  0
    0.2930    3.0553    1.8964 H   0  0  0  0  0  0  0  0  0  0  0  0
   -2.3219    0.4844    0.6339 H   0  0  0  0  0  0  0  0  0  0  0  0
    1.6026   -1.1198    0.5195 H   0  0  0  0  0  0  0  0  0  0  0  0
   -0.5832   -0.2803   -1.4534 H   0  0  0  0  0  0  0  0  0  0  0  0
    2.1796   -1.2235   -1.8897 H   0  0  0  0  0  0  0  0  0  0  0  0
    0.8448    0.9337    2.6878 H   0  0  0  0  0  0  0  0  0  0  0  0
    1.1679   -0.7756    2.8195 H   0  0  0  0  0  0  0  0  0  0  0  0
   -0.2458   -0.7196    4.5946 H   0  0  0  0  0  0  0  0  0  0  0  0
   -0.4905    1.6718    4.3884 H   0  0  0  0  0  0  0  0  0  0  0  0
   -1.7795    1.4458    3.4167 H   0  0  0  0  0  0  0  0  0  0  0  0
   -3.0130   -1.3968    4.6674 H   0  0  0  0  0  0  0  0  0  0  0  0
   -4.6980   -2.5648    3.1825 H   0  0  0  0  0  0  0  0  0  0  0  0
   -4.2008   -2.6305    0.7553 H   0  0  0  0  0  0  0  0  0  0  0  0
   -0.5417   -2.4482    1.9012 H   0  0  0  0  0  0  0  0  0  0  0  0
  1  2  2  0
  2  3  1  0
  3  4  1  0
  4  5  1  0
  5  6  2  3
  6  7  1  0
  6  8  1  0
  8  9  2  3
  9 10  1  0
 10 11  2  3
 11 12  1  0
 12 13  1  0
 13 14  2  3
 14 15  1  0
 12 16  1  0
 16 17  1  0
 17 18  1  0
 17 19  1  0
 19 20  1  0
 20 21  2  0
 21 22  1  0
 22 23  2  0
 23 24  1  0
 15  3  1  0
 24 19  1  0
 24 12  1  0
  1 25  1  0
  1 26  1  0
  2 27  1  0
  3 28  1  6
  4 29  1  0
  4 30  1  0
  5 31  1  0
  8 32  1  0
  9 33  1  0
 11 34  1  0
 13 35  1  0
 14 36  1  0
 15 37  1  0
 16 38  1  0
 16 39  1  0
 17 40  1  0
 18 41  1  0
 18 42  1  0
 20 43  1  0
 21 44  1  0
 22 45  1  0
 24 46  1  0
M  END
>  <candidate_id>  (63) 
CAND_8707636f6f

>  <source_generator>  (63) 
selfies

>  <parent_mol_id>  (63) 
JAK2_628eb3c7b6

>  <canonical_smiles>  (63) 
C=C[C@@H]1CC=C(F)C=CN=CC2(C=CN1)CC(N)N1C=CC=NC12

>  <inchikey>  (63) 
ZOLSQBXELHOAFM-VGZZGSPPSA-N

>  <valid_rdkit>  (63) 
True

>  <unique_flag>  (63) 
True

>  <novel_flag>  (63) 
True

>  <mw>  (63) 
327.407

>  <logp>  (63) 
2.387

>  <tpsa>  (63) 
66.01

>  <hbd>  (63) 
2

>  <hba>  (63) 
5

>  <rotatable_bonds>  (63) 
1

>  <qed>  (63) 
0.7269

>  <sa_score>  (63) 
4.075

>  <murcko_scaffold>  (63) 
C1=CCCNC=CC2(C=NC=C1)CCN1C=CC=NC12

>  <max_ring_size>  (63) 
12

>  <has_macrocycle_12_20>  (63) 
True

>  <has_constrained_ring_8_11>  (63) 
False

>  <passes_basic_filters>  (63) 
True

>  <generation_notes>  (63) 
selfies_token_mutation

>  <best_score>  (63) 
nan

>  <qed_admet>  (63) 
0.7269

>  <sa_score_admet>  (63) 
4.075

>  <mw_admet>  (63) 
327.407

>  <logp_admet>  (63) 
2.387

>  <tpsa_admet>  (63) 
66.01

>  <hbd_admet>  (63) 
2

>  <hba_admet>  (63) 
5

>  <rotatable_bonds_admet>  (63) 
1

>  <lipinski_violations>  (63) 
0

>  <veber_pass>  (63) 
True

>  <admet_score>  (63) 
0.877105

>  <synthesis_score>  (63) 
0.658333

>  <safety_proxy_score>  (63) 
1.0

>  <main_risk>  (63) 
no_major_descriptor_risk

>  <pose_score>  (63) 
0.5

>  <pose_decision>  (63) 
nan

>  <contacts_within_4A>  (63) 
nan

>  <hard_clashes_lt_1_8A>  (63) 
nan

>  <smiles>  (63) 
C=C[C@@H]1CC=C(F)C=CN=CC2(C=CN1)CC(N)N1C=CC=NC12

>  <docking_score>  (63) 
nan

>  <diversity_cluster>  (63) 
scaffold_f9af532a

>  <docking_score_scaled>  (63) 
0.0

>  <novelty_score>  (63) 
1.0

>  <final_weighted_score>  (63) 
0.499171

>  <rank>  (63) 
1128

>  <decision>  (63) 
await_docking

>  <diverse_rank>  (63) 
755

>  <selection_tier>  (63) 
await_docking

$$$$
CAND_35811d5578
     RDKit          3D

 53 54  0  0  0  0  0  0  0  0999 V2000
    6.4838   -0.6376    0.0234 C   0  0  0  0  0  0  0  0  0  0  0  0
    5.2116   -1.2160   -0.3763 N   0  0  0  0  0  0  0  0  0  0  0  0
    4.1298   -0.2205   -0.4394 C   0  0  0  0  0  0  0  0  0  0  0  0
    3.6829    0.3614    0.9170 C   0  0  0  0  0  0  0  0  0  0  0  0
    2.5236    1.2303    0.7406 N   0  0  0  0  0  0  0  0  0  0  0  0
    2.5914    2.5773    0.4278 C   0  0  0  0  0  0  0  0  0  0  0  0
    1.5240    3.2983    0.0516 C   0  0  0  0  0  0  0  0  0  0  0  0
    0.2344    2.6178   -0.1081 C   0  0  0  0  0  0  0  0  0  0  0  0
   -0.8709    3.3663   -0.3061 C   0  0  0  0  0  0  0  0  0  0  0  0
   -2.2117    3.0589   -0.3643 N   0  0  0  0  0  0  0  0  0  0  0  0
   -2.8871    1.8331   -0.0170 C   0  0  0  0  0  0  0  0  0  0  0  0
   -4.2532    2.1365    0.3935 N   0  0  0  0  0  0  0  0  0  0  0  0
   -5.1557    1.2341    0.2715 C   0  0  0  0  0  0  0  0  0  0  0  0
   -5.0471   -0.1449   -0.2496 C   0  0  0  0  0  0  0  0  0  0  0  0
   -4.4782   -1.1610    0.4120 C   0  0  0  0  0  0  0  0  0  0  0  0
   -3.9459   -1.1401    1.7575 C   0  0  0  0  0  0  0  0  0  0  0  0
   -3.0578   -2.0250    2.2473 C   0  0  0  0  0  0  0  0  0  0  0  0
   -2.3609   -3.1432    1.5052 C   0  0  0  0  0  0  0  0  0  0  0  0
   -1.6456   -2.7035    0.2499 C   0  0  0  0  0  0  0  0  0  0  0  0
   -1.0170   -1.5207    0.1155 C   0  0  0  0  0  0  0  0  0  0  0  0
   -0.5274   -0.8855   -1.1034 C   0  0  0  0  0  0  0  0  0  0  0  0
   -0.7318   -1.6786   -2.6465 S   0  0  0  0  0  0  0  0  0  0  0  0
    0.5555   -2.8673   -2.5222 C   0  0  0  0  0  0  0  0  0  0  0  0
    0.4069   -4.0268   -2.9071 O   0  0  0  0  0  0  0  0  0  0  0  0
   -0.0411    0.3736   -1.0924 C   0  0  0  0  0  0  0  0  0  0  0  0
    0.2909    1.2135   -0.0319 N   0  0  0  0  0  0  0  0  0  0  0  0
    1.2248    0.6730    0.9080 N   0  0  0  0  0  0  0  0  0  0  0  0
    6.4535   -0.2513    1.0453 H   0  0  0  0  0  0  0  0  0  0  0  0
    7.2583   -1.4061   -0.0170 H   0  0  0  0  0  0  0  0  0  0  0  0
    6.7868    0.1649   -0.6559 H   0  0  0  0  0  0  0  0  0  0  0  0
    4.9519   -1.9655    0.2661 H   0  0  0  0  0  0  0  0  0  0  0  0
    3.2696   -0.7124   -0.9126 H   0  0  0  0  0  0  0  0  0  0  0  0
    4.4162    0.5913   -1.1218 H   0  0  0  0  0  0  0  0  0  0  0  0
    3.4331   -0.4540    1.6085 H   0  0  0  0  0  0  0  0  0  0  0  0
    4.4989    0.9286    1.3796 H   0  0  0  0  0  0  0  0  0  0  0  0
    3.5799    3.0191    0.5002 H   0  0  0  0  0  0  0  0  0  0  0  0
    1.6106    4.3580   -0.1612 H   0  0  0  0  0  0  0  0  0  0  0  0
   -0.7538    4.4473   -0.3867 H   0  0  0  0  0  0  0  0  0  0  0  0
   -2.8577    3.8351   -0.4616 H   0  0  0  0  0  0  0  0  0  0  0  0
   -2.8620    1.1712   -0.8901 H   0  0  0  0  0  0  0  0  0  0  0  0
   -2.3757    1.3466    0.8218 H   0  0  0  0  0  0  0  0  0  0  0  0
   -6.1854    1.5133    0.5526 H   0  0  0  0  0  0  0  0  0  0  0  0
   -5.4555   -0.2948   -1.2421 H   0  0  0  0  0  0  0  0  0  0  0  0
   -4.4258   -2.1132   -0.1149 H   0  0  0  0  0  0  0  0  0  0  0  0
   -4.2960   -0.3449    2.4169 H   0  0  0  0  0  0  0  0  0  0  0  0
   -2.7571   -1.9089    3.2882 H   0  0  0  0  0  0  0  0  0  0  0  0
   -1.6461   -3.6476    2.1651 H   0  0  0  0  0  0  0  0  0  0  0  0
   -3.1136   -3.8967    1.2427 H   0  0  0  0  0  0  0  0  0  0  0  0
   -1.7550   -3.3805   -0.5946 H   0  0  0  0  0  0  0  0  0  0  0  0
   -0.9531   -0.8928    1.0035 H   0  0  0  0  0  0  0  0  0  0  0  0
    1.5031   -2.5152   -2.0731 H   0  0  0  0  0  0  0  0  0  0  0  0
    0.1614    0.8824   -2.0343 H   0  0  0  0  0  0  0  0  0  0  0  0
    0.8858    0.9227    1.8439 H   0  0  0  0  0  0  0  0  0  0  0  0
  1  2  1  0
  2  3  1  0
  3  4  1  0
  4  5  1  0
  5  6  1  0
  6  7  2  0
  7  8  1  0
  8  9  2  3
  9 10  1  0
 10 11  1  0
 11 12  1  0
 12 13  2  3
 13 14  1  0
 14 15  2  3
 15 16  1  0
 16 17  2  3
 17 18  1  0
 18 19  1  0
 19 20  2  3
 20 21  1  0
 21 22  1  0
 22 23  1  0
 23 24  2  0
 21 25  2  3
 25 26  1  0
 26 27  1  0
 27  5  1  0
 26  8  1  0
  1 28  1  0
  1 29  1  0
  1 30  1  0
  2 31  1  0
  3 32  1  0
  3 33  1  0
  4 34  1  0
  4 35  1  0
  6 36  1  0
  7 37  1  0
  9 38  1  0
 10 39  1  0
 11 40  1  0
 11 41  1  0
 13 42  1  0
 14 43  1  0
 15 44  1  0
 16 45  1  0
 17 46  1  0
 18 47  1  0
 18 48  1  0
 19 49  1  0
 20 50  1  0
 23 51  1  0
 25 52  1  0
 27 53  1  0
M  END
>  <candidate_id>  (64) 
CAND_35811d5578

>  <source_generator>  (64) 
selfies

>  <parent_mol_id>  (64) 
JAK2_14588c086c

>  <canonical_smiles>  (64) 
CNCCN1C=CC2=CNCN=CC=CC=CCC=CC(SC=O)=CN2N1

>  <inchikey>  (64) 
NRXMEBSUTAOOJW-UHFFFAOYSA-N

>  <valid_rdkit>  (64) 
True

>  <unique_flag>  (64) 
True

>  <novel_flag>  (64) 
True

>  <mw>  (64) 
386.525

>  <logp>  (64) 
2.0531

>  <tpsa>  (64) 
72.0

>  <hbd>  (64) 
3

>  <hba>  (64) 
8

>  <rotatable_bonds>  (64) 
5

>  <qed>  (64) 
0.6248

>  <sa_score>  (64) 
3.528

>  <murcko_scaffold>  (64) 
C1=CC=NCNC=C2C=CNNN2C=CC=CCC=C1

>  <max_ring_size>  (64) 
16

>  <has_macrocycle_12_20>  (64) 
True

>  <has_constrained_ring_8_11>  (64) 
False

>  <passes_basic_filters>  (64) 
True

>  <generation_notes>  (64) 
selfies_token_mutation

>  <best_score>  (64) 
nan

>  <qed_admet>  (64) 
0.6248

>  <sa_score_admet>  (64) 
3.528

>  <mw_admet>  (64) 
386.525

>  <logp_admet>  (64) 
2.0531

>  <tpsa_admet>  (64) 
72.0

>  <hbd_admet>  (64) 
3

>  <hba_admet>  (64) 
8

>  <rotatable_bonds_admet>  (64) 
5

>  <lipinski_violations>  (64) 
0

>  <veber_pass>  (64) 
True

>  <admet_score>  (64) 
0.83116

>  <synthesis_score>  (64) 
0.719111

>  <safety_proxy_score>  (64) 
1.0

>  <main_risk>  (64) 
no_major_descriptor_risk

>  <pose_score>  (64) 
0.5

>  <pose_decision>  (64) 
nan

>  <contacts_within_4A>  (64) 
nan

>  <hard_clashes_lt_1_8A>  (64) 
nan

>  <smiles>  (64) 
CNCCN1C=CC2=CNCN=CC=CC=CCC=CC(SC=O)=CN2N1

>  <docking_score>  (64) 
nan

>  <diversity_cluster>  (64) 
scaffold_3be58133

>  <docking_score_scaled>  (64) 
0.0

>  <novelty_score>  (64) 
1.0

>  <final_weighted_score>  (64) 
0.499099

>  <rank>  (64) 
1130

>  <decision>  (64) 
await_docking

>  <diverse_rank>  (64) 
757

>  <selection_tier>  (64) 
await_docking

$$$$
CAND_279bcf4cf5
     RDKit          3D

 55 58  0  0  0  0  0  0  0  0999 V2000
    7.0328   -2.1686   -0.1282 C   0  0  0  0  0  0  0  0  0  0  0  0
    6.5684   -1.1413    0.8694 C   0  0  0  0  0  0  0  0  0  0  0  0
    7.2526   -0.8094    1.8322 O   0  0  0  0  0  0  0  0  0  0  0  0
    5.3081   -0.6458    0.5836 N   0  0  0  0  0  0  0  0  0  0  0  0
    4.6756    0.2908    1.3626 C   0  0  0  0  0  0  0  0  0  0  0  0
    3.4610    0.8063    1.1255 C   0  0  0  0  0  0  0  0  0  0  0  0
    2.5632    0.4662    0.0388 C   0  0  0  0  0  0  0  0  0  0  0  0
    1.4021    1.0794   -0.2759 C   0  0  0  0  0  0  0  0  0  0  0  0
    0.5250    0.5559   -1.4078 C   0  0  0  0  0  0  0  0  0  0  0  0
   -0.4170   -0.5404   -0.9738 C   0  0  0  0  0  0  0  0  0  0  0  0
   -0.6562   -1.6803   -1.6489 C   0  0  0  0  0  0  0  0  0  0  0  0
   -1.6194   -2.7992   -1.2848 C   0  0  0  0  0  0  0  0  0  0  0  0
   -2.5506   -2.6024   -0.0481 C   0  0  0  0  0  0  0  0  0  0  0  0
   -3.6474   -1.6371   -0.3254 N   0  0  0  0  0  0  0  0  0  0  0  0
   -4.1653   -1.6992   -1.7053 C   0  0  0  0  0  0  0  0  0  0  0  0
   -3.7574   -3.0142   -2.3835 C   0  0  0  0  0  0  0  0  0  0  0  0
   -2.3322   -3.1476   -2.4937 O   0  0  0  0  0  0  0  0  0  0  0  0
   -3.6946   -0.4412    0.3914 C   0  0  0  0  0  0  0  0  0  0  0  0
   -4.1200    0.7658   -0.1865 C   0  0  0  0  0  0  0  0  0  0  0  0
   -3.7985    2.0028    0.3865 C   0  0  0  0  0  0  0  0  0  0  0  0
   -3.0555    2.0494    1.5637 C   0  0  0  0  0  0  0  0  0  0  0  0
   -2.8480    0.8637    2.2665 C   0  0  0  0  0  0  0  0  0  0  0  0
   -3.2031   -0.3622    1.7019 C   0  0  0  0  0  0  0  0  0  0  0  0
   -2.2744    3.1781    1.8576 N   0  0  0  0  0  0  0  0  0  0  0  0
   -0.9317    3.2637    1.4523 C   0  0  0  0  0  0  0  0  0  0  0  0
   -0.3393    4.4632    1.5052 N   0  0  0  0  0  0  0  0  0  0  0  0
    0.9089    4.5406    1.0005 C   0  0  0  0  0  0  0  0  0  0  0  0
    1.5709    3.4845    0.4177 C   0  0  0  0  0  0  0  0  0  0  0  0
    0.8841    2.2932    0.3955 C   0  0  0  0  0  0  0  0  0  0  0  0
   -0.3416    2.1760    0.9250 N   0  0  0  0  0  0  0  0  0  0  0  0
    6.4554   -3.0882   -0.0002 H   0  0  0  0  0  0  0  0  0  0  0  0
    6.9002   -1.7934   -1.1470 H   0  0  0  0  0  0  0  0  0  0  0  0
    8.0929   -2.3838    0.0311 H   0  0  0  0  0  0  0  0  0  0  0  0
    4.8364   -0.9934   -0.2404 H   0  0  0  0  0  0  0  0  0  0  0  0
    5.2359    0.6269    2.2359 H   0  0  0  0  0  0  0  0  0  0  0  0
    3.1012    1.5383    1.8473 H   0  0  0  0  0  0  0  0  0  0  0  0
    2.8299   -0.4085   -0.5495 H   0  0  0  0  0  0  0  0  0  0  0  0
   -0.0672    1.3772   -1.8321 H   0  0  0  0  0  0  0  0  0  0  0  0
    1.1644    0.2006   -2.2269 H   0  0  0  0  0  0  0  0  0  0  0  0
   -0.9552   -0.3307   -0.0541 H   0  0  0  0  0  0  0  0  0  0  0  0
   -0.1135   -1.8550   -2.5763 H   0  0  0  0  0  0  0  0  0  0  0  0
   -0.9869   -3.6689   -1.0647 H   0  0  0  0  0  0  0  0  0  0  0  0
   -3.0245   -3.5630    0.1919 H   0  0  0  0  0  0  0  0  0  0  0  0
   -1.9305   -2.3483    0.8164 H   0  0  0  0  0  0  0  0  0  0  0  0
   -3.7383   -0.8847   -2.3030 H   0  0  0  0  0  0  0  0  0  0  0  0
   -5.2568   -1.6068   -1.6981 H   0  0  0  0  0  0  0  0  0  0  0  0
   -4.1515   -3.8836   -1.8446 H   0  0  0  0  0  0  0  0  0  0  0  0
   -4.1648   -3.0497   -3.3990 H   0  0  0  0  0  0  0  0  0  0  0  0
   -4.5938    0.7860   -1.1624 H   0  0  0  0  0  0  0  0  0  0  0  0
   -3.9956    2.9100   -0.1773 H   0  0  0  0  0  0  0  0  0  0  0  0
   -2.2971    0.8773    3.2033 H   0  0  0  0  0  0  0  0  0  0  0  0
   -2.9698   -1.2600    2.2658 H   0  0  0  0  0  0  0  0  0  0  0  0
   -2.6993    4.0909    1.8165 H   0  0  0  0  0  0  0  0  0  0  0  0
    1.3710    5.5218    1.0642 H   0  0  0  0  0  0  0  0  0  0  0  0
    2.5569    3.5982   -0.0108 H   0  0  0  0  0  0  0  0  0  0  0  0
  1  2  1  0
  2  3  2  0
  2  4  1  0
  4  5  1  0
  5  6  2  3
  6  7  1  0
  7  8  2  3
  8  9  1  0
  9 10  1  0
 10 11  2  3
 11 12  1  0
 12 13  1  0
 13 14  1  0
 14 15  1  0
 15 16  1  0
 16 17  1  0
 14 18  1  0
 18 19  2  0
 19 20  1  0
 20 21  2  0
 21 22  1  0
 22 23  2  0
 21 24  1  0
 24 25  1  0
 25 26  2  0
 26 27  1  0
 27 28  2  0
 28 29  1  0
 29 30  2  0
 29  8  1  0
 17 12  1  0
 23 18  1  0
 30 25  1  0
  1 31  1  0
  1 32  1  0
  1 33  1  0
  4 34  1  0
  5 35  1  0
  6 36  1  0
  7 37  1  0
  9 38  1  0
  9 39  1  0
 10 40  1  0
 11 41  1  0
 12 42  1  0
 13 43  1  0
 13 44  1  0
 15 45  1  0
 15 46  1  0
 16 47  1  0
 16 48  1  0
 19 49  1  0
 20 50  1  0
 22 51  1  0
 23 52  1  0
 24 53  1  0
 27 54  1  0
 28 55  1  0
M  END
>  <candidate_id>  (65) 
CAND_279bcf4cf5

>  <source_generator>  (65) 
selfies

>  <parent_mol_id>  (65) 
JAK2_bb041e75cb

>  <canonical_smiles>  (65) 
CC(=O)NC=CC=C1CC=CC2CN(CCO2)c2ccc(cc2)Nc2nccc1n2

>  <inchikey>  (65) 
YKSPEWKCYYZVBC-UHFFFAOYSA-N

>  <valid_rdkit>  (65) 
True

>  <unique_flag>  (65) 
True

>  <novel_flag>  (65) 
True

>  <mw>  (65) 
403.486

>  <logp>  (65) 
3.4185

>  <tpsa>  (65) 
79.38

>  <hbd>  (65) 
2

>  <hba>  (65) 
6

>  <rotatable_bonds>  (65) 
2

>  <qed>  (65) 
0.7484

>  <sa_score>  (65) 
4.197

>  <murcko_scaffold>  (65) 
C=C1CC=CC2CN(CCO2)c2ccc(cc2)Nc2nccc1n2

>  <max_ring_size>  (65) 
15

>  <has_macrocycle_12_20>  (65) 
True

>  <has_constrained_ring_8_11>  (65) 
False

>  <passes_basic_filters>  (65) 
True

>  <generation_notes>  (65) 
selfies_token_mutation

>  <best_score>  (65) 
nan

>  <qed_admet>  (65) 
0.7484

>  <sa_score_admet>  (65) 
4.197

>  <mw_admet>  (65) 
403.486

>  <logp_admet>  (65) 
3.4185

>  <tpsa_admet>  (65) 
79.38

>  <hbd_admet>  (65) 
2

>  <hba_admet>  (65) 
6

>  <rotatable_bonds_admet>  (65) 
2

>  <lipinski_violations>  (65) 
0

>  <veber_pass>  (65) 
True

>  <admet_score>  (65) 
0.88678

>  <synthesis_score>  (65) 
0.644778

>  <safety_proxy_score>  (65) 
1.0

>  <main_risk>  (65) 
no_major_descriptor_risk

>  <pose_score>  (65) 
0.5

>  <pose_decision>  (65) 
nan

>  <contacts_within_4A>  (65) 
nan

>  <hard_clashes_lt_1_8A>  (65) 
nan

>  <smiles>  (65) 
CC(=O)NC=CC=C1CC=CC2CN(CCO2)c2ccc(cc2)Nc2nccc1n2

>  <docking_score>  (65) 
nan

>  <diversity_cluster>  (65) 
scaffold_87e43616

>  <docking_score_scaled>  (65) 
0.0

>  <novelty_score>  (65) 
1.0

>  <final_weighted_score>  (65) 
0.499073

>  <rank>  (65) 
1135

>  <decision>  (65) 
await_docking

>  <diverse_rank>  (65) 
762

>  <selection_tier>  (65) 
await_docking

$$$$
CAND_2d894f0a15
     RDKit          3D

 48 48  0  0  0  0  0  0  0  0999 V2000
   -0.4310    3.4159   -1.1925 C   0  0  0  0  0  0  0  0  0  0  0  0
    0.6307    2.3602   -0.8726 C   0  0  0  0  0  0  0  0  0  0  0  0
    1.8018    2.9906   -0.1413 C   0  0  0  0  0  0  0  0  0  0  0  0
    3.0274    2.4614    0.0506 C   0  0  0  0  0  0  0  0  0  0  0  0
    3.5463    1.1439   -0.4568 C   0  0  0  0  0  0  0  0  0  0  0  0
    5.0596    1.1347   -0.6913 C   0  0  0  0  0  0  0  0  0  0  0  0
    5.7757    2.1285   -0.8047 O   0  0  0  0  0  0  0  0  0  0  0  0
    3.1546    0.1017    0.4718 N   0  0  0  0  0  0  0  0  0  0  0  0
    3.6563   -0.2698    1.6905 C   0  0  0  0  0  0  0  0  0  0  0  0
    3.0705   -1.1403    2.5309 C   0  0  0  0  0  0  0  0  0  0  0  0
    1.7504   -1.8605    2.3561 C   0  0  0  0  0  0  0  0  0  0  0  0
    1.0251   -1.3201    1.2135 N   0  0  0  0  0  0  0  0  0  0  0  0
   -0.2472   -1.4731    1.1684 C   0  0  0  0  0  0  0  0  0  0  0  0
   -1.0772   -0.9217    0.1908 N   0  0  0  0  0  0  0  0  0  0  0  0
   -2.4571   -1.4943    0.0449 C   0  0  2  0  0  0  0  0  0  0  0  0
   -2.8437   -1.7511   -1.4440 C   0  0  0  0  0  0  0  0  0  0  0  0
   -3.6646   -3.0440   -1.5717 C   0  0  0  0  0  0  0  0  0  0  0  0
   -3.6221   -0.6149   -2.1170 C   0  0  0  0  0  0  0  0  0  0  0  0
   -3.4891   -0.7007    0.8674 C   0  0  0  0  0  0  0  0  0  0  0  0
   -4.7053   -1.2960    0.8168 F   0  0  0  0  0  0  0  0  0  0  0  0
   -3.6426    0.5716    0.4449 F   0  0  0  0  0  0  0  0  0  0  0  0
   -3.1337   -0.6585    2.1751 F   0  0  0  0  0  0  0  0  0  0  0  0
   -0.6648    0.2035   -0.5309 C   0  0  0  0  0  0  0  0  0  0  0  0
    0.0372    1.2441   -0.0522 C   0  0  0  0  0  0  0  0  0  0  0  0
   -1.2541    2.9823   -1.7719 H   0  0  0  0  0  0  0  0  0  0  0  0
   -0.8581    3.8511   -0.2812 H   0  0  0  0  0  0  0  0  0  0  0  0
   -0.0040    4.2322   -1.7862 H   0  0  0  0  0  0  0  0  0  0  0  0
    0.9946    1.9565   -1.8263 H   0  0  0  0  0  0  0  0  0  0  0  0
    1.6092    3.9576    0.3237 H   0  0  0  0  0  0  0  0  0  0  0  0
    3.7381    3.0411    0.6388 H   0  0  0  0  0  0  0  0  0  0  0  0
    3.1019    0.9153   -1.4324 H   0  0  0  0  0  0  0  0  0  0  0  0
    5.4930    0.1291   -0.8338 H   0  0  0  0  0  0  0  0  0  0  0  0
    2.2175   -0.2951    0.3121 H   0  0  0  0  0  0  0  0  0  0  0  0
    4.5982    0.2023    1.9608 H   0  0  0  0  0  0  0  0  0  0  0  0
    3.5821   -1.3547    3.4661 H   0  0  0  0  0  0  0  0  0  0  0  0
    1.9462   -2.9278    2.2074 H   0  0  0  0  0  0  0  0  0  0  0  0
    1.1696   -1.7409    3.2786 H   0  0  0  0  0  0  0  0  0  0  0  0
   -0.7921   -2.0812    1.9129 H   0  0  0  0  0  0  0  0  0  0  0  0
   -2.4177   -2.4875    0.5137 H   0  0  0  0  0  0  0  0  0  0  0  0
   -1.9246   -1.9187   -2.0212 H   0  0  0  0  0  0  0  0  0  0  0  0
   -4.6101   -2.9769   -1.0242 H   0  0  0  0  0  0  0  0  0  0  0  0
   -3.8974   -3.2535   -2.6215 H   0  0  0  0  0  0  0  0  0  0  0  0
   -3.1052   -3.9013   -1.1825 H   0  0  0  0  0  0  0  0  0  0  0  0
   -3.7485   -0.8231   -3.1855 H   0  0  0  0  0  0  0  0  0  0  0  0
   -3.1086    0.3459   -2.0325 H   0  0  0  0  0  0  0  0  0  0  0  0
   -4.6235   -0.5024   -1.6882 H   0  0  0  0  0  0  0  0  0  0  0  0
   -0.9270    0.1718   -1.5833 H   0  0  0  0  0  0  0  0  0  0  0  0
    0.2631    1.2669    1.0141 H   0  0  0  0  0  0  0  0  0  0  0  0
  1  2  1  0
  2  3  1  0
  3  4  2  3
  4  5  1  0
  5  6  1  0
  6  7  2  0
  5  8  1  0
  8  9  1  0
  9 10  2  3
 10 11  1  0
 11 12  1  0
 12 13  2  3
 13 14  1  0
 14 15  1  0
 15 16  1  0
 16 17  1  0
 16 18  1  0
 15 19  1  0
 19 20  1  0
 19 21  1  0
 19 22  1  0
 14 23  1  0
 23 24  2  3
 24  2  1  0
  1 25  1  0
  1 26  1  0
  1 27  1  0
  2 28  1  0
  3 29  1  0
  4 30  1  0
  5 31  1  0
  6 32  1  0
  8 33  1  0
  9 34  1  0
 10 35  1  0
 11 36  1  0
 11 37  1  0
 13 38  1  0
 15 39  1  1
 16 40  1  0
 17 41  1  0
 17 42  1  0
 17 43  1  0
 18 44  1  0
 18 45  1  0
 18 46  1  0
 23 47  1  0
 24 48  1  0
M  END
>  <candidate_id>  (66) 
CAND_2d894f0a15

>  <source_generator>  (66) 
selfies

>  <parent_mol_id>  (66) 
JAK2_21004599ab

>  <canonical_smiles>  (66) 
CC1C=CC(C=O)NC=CCN=CN([C@H](C(C)C)C(F)(F)F)C=C1

>  <inchikey>  (66) 
ZZNSCEUATUCCIU-UYSNPLJNSA-N

>  <valid_rdkit>  (66) 
True

>  <unique_flag>  (66) 
True

>  <novel_flag>  (66) 
True

>  <mw>  (66) 
343.393

>  <logp>  (66) 
3.294

>  <tpsa>  (66) 
44.7

>  <hbd>  (66) 
1

>  <hba>  (66) 
4

>  <rotatable_bonds>  (66) 
3

>  <qed>  (66) 
0.6317

>  <sa_score>  (66) 
3.575

>  <murcko_scaffold>  (66) 
C1=CCNC=CCN=CNC=CC1

>  <max_ring_size>  (66) 
13

>  <has_macrocycle_12_20>  (66) 
True

>  <has_constrained_ring_8_11>  (66) 
False

>  <passes_basic_filters>  (66) 
True

>  <generation_notes>  (66) 
selfies_token_mutation

>  <best_score>  (66) 
nan

>  <qed_admet>  (66) 
0.6317

>  <sa_score_admet>  (66) 
3.575

>  <mw_admet>  (66) 
343.393

>  <logp_admet>  (66) 
3.294

>  <tpsa_admet>  (66) 
44.7

>  <hbd_admet>  (66) 
1

>  <hba_admet>  (66) 
4

>  <rotatable_bonds_admet>  (66) 
3

>  <lipinski_violations>  (66) 
0

>  <veber_pass>  (66) 
True

>  <admet_score>  (66) 
0.834265

>  <synthesis_score>  (66) 
0.713889

>  <safety_proxy_score>  (66) 
1.0

>  <main_risk>  (66) 
no_major_descriptor_risk

>  <pose_score>  (66) 
0.5

>  <pose_decision>  (66) 
nan

>  <contacts_within_4A>  (66) 
nan

>  <hard_clashes_lt_1_8A>  (66) 
nan

>  <smiles>  (66) 
CC1C=CC(C=O)NC=CCN=CN([C@H](C(C)C)C(F)(F)F)C=C1

>  <docking_score>  (66) 
nan

>  <diversity_cluster>  (66) 
scaffold_eaa54277

>  <docking_score_scaled>  (66) 
0.0

>  <novelty_score>  (66) 
1.0

>  <final_weighted_score>  (66) 
0.498936

>  <rank>  (66) 
1146

>  <decision>  (66) 
await_docking

>  <diverse_rank>  (66) 
765

>  <selection_tier>  (66) 
await_docking

$$$$
CAND_5b15561f8a
     RDKit          3D

 41 43  0  0  0  0  0  0  0  0999 V2000
    4.3256   -1.0993    0.5619 N   0  0  0  0  0  0  0  0  0  0  0  0
    3.0261   -1.3540    0.8857 C   0  0  0  0  0  0  0  0  0  0  0  0
    2.5418   -2.5261    0.6336 N   0  0  0  0  0  0  0  0  0  0  0  0
    1.1228   -2.8323    0.8904 C   0  0  0  0  0  0  0  0  0  0  0  0
    0.2399   -2.8278   -0.4057 C   0  0  0  0  0  0  0  0  0  0  0  0
   -1.0396   -2.1684   -0.0888 N   0  0  0  0  0  0  0  0  0  0  0  0
   -1.1355   -0.9382   -0.4813 C   0  0  0  0  0  0  0  0  0  0  0  0
   -2.4031   -0.2334   -0.1733 C   0  0  0  0  0  0  0  0  0  0  0  0
   -2.7406   -0.0972    1.1812 C   0  0  0  0  0  0  0  0  0  0  0  0
   -3.9141    0.5630    1.5346 C   0  0  0  0  0  0  0  0  0  0  0  0
   -4.3213    0.7514    3.1942 Cl  0  0  0  0  0  0  0  0  0  0  0  0
   -4.7573    1.0800    0.5523 C   0  0  0  0  0  0  0  0  0  0  0  0
   -4.4293    0.9273   -0.7979 C   0  0  0  0  0  0  0  0  0  0  0  0
   -3.2537    0.2658   -1.1675 C   0  0  0  0  0  0  0  0  0  0  0  0
   -2.9362    0.0798   -2.8520 Cl  0  0  0  0  0  0  0  0  0  0  0  0
   -0.0644   -0.1252   -1.1734 C   0  0  0  0  0  0  0  0  0  0  0  0
    0.8705   -0.8884   -1.7516 C   0  0  0  0  0  0  0  0  0  0  0  0
    0.9420   -2.2403   -1.5349 N   0  0  0  0  0  0  0  0  0  0  0  0
    0.0025    1.2389   -0.9937 N   0  0  0  0  0  0  0  0  0  0  0  0
    1.0889    2.0329   -1.3235 C   0  0  0  0  0  0  0  0  0  0  0  0
    1.8280    1.8642   -2.2899 O   0  0  0  0  0  0  0  0  0  0  0  0
    1.2910    3.1975   -0.3846 C   0  0  0  0  0  0  0  0  0  0  0  0
    1.1361    2.9098    1.0863 C   0  0  0  0  0  0  0  0  0  0  0  0
    1.5511    1.8760    1.7594 N   0  0  0  0  0  0  0  0  0  0  0  0
    2.2829    0.9618    1.0084 N   0  0  0  0  0  0  0  0  0  0  0  0
    2.2451   -0.2230    1.5316 C   0  0  0  0  0  0  0  0  0  0  0  0
    4.8500   -1.8136    0.0773 H   0  0  0  0  0  0  0  0  0  0  0  0
    4.6845   -0.1530    0.5903 H   0  0  0  0  0  0  0  0  0  0  0  0
    1.0787   -3.8394    1.3242 H   0  0  0  0  0  0  0  0  0  0  0  0
    0.6842   -2.1888    1.6595 H   0  0  0  0  0  0  0  0  0  0  0  0
    0.0160   -3.8679   -0.6691 H   0  0  0  0  0  0  0  0  0  0  0  0
   -2.0900   -0.5102    1.9490 H   0  0  0  0  0  0  0  0  0  0  0  0
   -5.6769    1.5911    0.8287 H   0  0  0  0  0  0  0  0  0  0  0  0
   -5.1030    1.3169   -1.5586 H   0  0  0  0  0  0  0  0  0  0  0  0
    1.7293   -0.4933   -2.2837 H   0  0  0  0  0  0  0  0  0  0  0  0
    1.8310   -2.6835   -1.7533 H   0  0  0  0  0  0  0  0  0  0  0  0
   -0.6862    1.6397   -0.3736 H   0  0  0  0  0  0  0  0  0  0  0  0
    0.5605    3.9690   -0.6530 H   0  0  0  0  0  0  0  0  0  0  0  0
    2.2904    3.6186   -0.5370 H   0  0  0  0  0  0  0  0  0  0  0  0
    0.6266    3.6955    1.6702 H   0  0  0  0  0  0  0  0  0  0  0  0
    1.7056   -0.4761    2.4578 H   0  0  0  0  0  0  0  0  0  0  0  0
  1  2  1  0
  2  3  2  3
  3  4  1  0
  4  5  1  0
  5  6  1  0
  6  7  2  0
  7  8  1  0
  8  9  2  0
  9 10  1  0
 10 11  1  0
 10 12  2  0
 12 13  1  0
 13 14  2  0
 14 15  1  0
  7 16  1  0
 16 17  2  0
 17 18  1  0
 16 19  1  0
 19 20  1  0
 20 21  2  0
 20 22  1  0
 22 23  1  0
 23 24  2  3
 24 25  1  0
 25 26  2  3
 26  2  1  0
 18  5  1  0
 14  8  1  0
  1 27  1  0
  1 28  1  0
  4 29  1  0
  4 30  1  0
  5 31  1  0
  9 32  1  0
 12 33  1  0
 13 34  1  0
 17 35  1  0
 18 36  1  0
 19 37  1  0
 22 38  1  0
 22 39  1  0
 23 40  1  0
 26 41  1  0
M  END
>  <candidate_id>  (67) 
CAND_5b15561f8a

>  <source_generator>  (67) 
selfies

>  <parent_mol_id>  (67) 
JAK2_48f4c39175

>  <canonical_smiles>  (67) 
NC1=NCC2N=C(c3cc(Cl)ccc3Cl)C(=CN2)NC(=O)CC=NN=C1

>  <inchikey>  (67) 
WLUYTAZIXDKBFD-UHFFFAOYSA-N

>  <valid_rdkit>  (67) 
True

>  <unique_flag>  (67) 
True

>  <novel_flag>  (67) 
True

>  <mw>  (67) 
392.25

>  <logp>  (67) 
1.4869

>  <tpsa>  (67) 
116.59

>  <hbd>  (67) 
3

>  <hba>  (67) 
7

>  <rotatable_bonds>  (67) 
1

>  <qed>  (67) 
0.6723

>  <sa_score>  (67) 
3.81

>  <murcko_scaffold>  (67) 
O=C1CC=NN=CC=NCC2N=C(c3ccccc3)C(=CN2)N1

>  <max_ring_size>  (67) 
14

>  <has_macrocycle_12_20>  (67) 
True

>  <has_constrained_ring_8_11>  (67) 
False

>  <passes_basic_filters>  (67) 
True

>  <generation_notes>  (67) 
selfies_token_mutation

>  <best_score>  (67) 
nan

>  <qed_admet>  (67) 
0.6723

>  <sa_score_admet>  (67) 
3.81

>  <mw_admet>  (67) 
392.25

>  <logp_admet>  (67) 
1.4869

>  <tpsa_admet>  (67) 
116.59

>  <hbd_admet>  (67) 
3

>  <hba_admet>  (67) 
7

>  <rotatable_bonds_admet>  (67) 
1

>  <lipinski_violations>  (67) 
0

>  <veber_pass>  (67) 
True

>  <admet_score>  (67) 
0.852535

>  <synthesis_score>  (67) 
0.687778

>  <safety_proxy_score>  (67) 
1.0

>  <main_risk>  (67) 
no_major_descriptor_risk

>  <pose_score>  (67) 
0.5

>  <pose_decision>  (67) 
nan

>  <contacts_within_4A>  (67) 
nan

>  <hard_clashes_lt_1_8A>  (67) 
nan

>  <smiles>  (67) 
NC1=NCC2N=C(c3cc(Cl)ccc3Cl)C(=CN2)NC(=O)CC=NN=C1

>  <docking_score>  (67) 
nan

>  <diversity_cluster>  (67) 
scaffold_6ec4fcf0

>  <docking_score_scaled>  (67) 
0.0

>  <novelty_score>  (67) 
1.0

>  <final_weighted_score>  (67) 
0.498674

>  <rank>  (67) 
1164

>  <decision>  (67) 
await_docking

>  <diverse_rank>  (67) 
775

>  <selection_tier>  (67) 
await_docking

$$$$
CAND_88fdcd39e2
     RDKit          3D

 41 41  0  0  0  0  0  0  0  0999 V2000
    6.3683   -0.5462    1.3719 C   0  0  0  0  0  0  0  0  0  0  0  0
    5.7421    0.5038    0.5132 C   0  0  0  0  0  0  0  0  0  0  0  0
    4.4468    0.8566    0.4537 C   0  0  0  0  0  0  0  0  0  0  0  0
    3.2977    0.3086    1.2406 C   0  0  0  0  0  0  0  0  0  0  0  0
    2.4352   -0.4020    0.3246 N   0  0  0  0  0  0  0  0  0  0  0  0
    1.3736    0.0474   -0.4474 C   0  0  0  0  0  0  0  0  0  0  0  0
    0.9190    1.3239   -0.3451 C   0  0  0  0  0  0  0  0  0  0  0  0
   -0.0041    1.9676   -1.1290 N   0  0  0  0  0  0  0  0  0  0  0  0
   -1.2673    1.8901   -0.8413 C   0  0  0  0  0  0  0  0  0  0  0  0
   -2.0545    2.7417   -1.7123 C   0  0  0  0  0  0  0  0  0  0  0  0
   -2.7317    3.4338   -2.3572 N   0  0  0  0  0  0  0  0  0  0  0  0
   -1.9915    1.1425    0.2657 C   0  0  0  0  0  0  0  0  0  0  0  0
   -3.1925    0.4811   -0.2748 N   0  0  0  0  0  0  0  0  0  0  0  0
   -3.7188   -0.5909    0.5866 C   0  0  1  0  0  0  0  0  0  0  0  0
   -4.5665   -0.0386    1.7273 C   0  0  0  0  0  0  0  0  0  0  0  0
   -4.5766   -1.4988   -0.3035 C   0  0  0  0  0  0  0  0  0  0  0  0
   -4.1436   -2.4602   -1.0718 N   0  0  0  0  0  0  0  0  0  0  0  0
   -2.7586   -2.6277   -0.9946 N   0  0  0  0  0  0  0  0  0  0  0  0
   -2.1178   -2.1412   -2.0158 C   0  0  0  0  0  0  0  0  0  0  0  0
   -2.7628   -1.6397   -3.0783 F   0  0  0  0  0  0  0  0  0  0  0  0
   -0.7507   -2.0663   -1.9936 N   0  0  0  0  0  0  0  0  0  0  0  0
   -0.4437   -0.8827   -1.7536 N   0  0  0  0  0  0  0  0  0  0  0  0
    0.8182   -0.8871   -1.3034 N   0  0  0  0  0  0  0  0  0  0  0  0
    6.8964   -1.2687    0.7417 H   0  0  0  0  0  0  0  0  0  0  0  0
    5.6477   -1.0993    1.9777 H   0  0  0  0  0  0  0  0  0  0  0  0
    7.0970   -0.0860    2.0463 H   0  0  0  0  0  0  0  0  0  0  0  0
    6.4353    1.0286   -0.1442 H   0  0  0  0  0  0  0  0  0  0  0  0
    4.1772    1.6460   -0.2479 H   0  0  0  0  0  0  0  0  0  0  0  0
    3.6292   -0.3878    2.0156 H   0  0  0  0  0  0  0  0  0  0  0  0
    2.7762    1.1135    1.7679 H   0  0  0  0  0  0  0  0  0  0  0  0
    2.7348   -1.3489    0.1285 H   0  0  0  0  0  0  0  0  0  0  0  0
    1.4108    1.9996    0.3482 H   0  0  0  0  0  0  0  0  0  0  0  0
   -1.3162    0.4069    0.7106 H   0  0  0  0  0  0  0  0  0  0  0  0
   -2.2714    1.8614    1.0433 H   0  0  0  0  0  0  0  0  0  0  0  0
   -3.9258    1.1623   -0.4805 H   0  0  0  0  0  0  0  0  0  0  0  0
   -2.9028   -1.1928    1.0021 H   0  0  0  0  0  0  0  0  0  0  0  0
   -4.9991   -0.8563    2.3145 H   0  0  0  0  0  0  0  0  0  0  0  0
   -3.9686    0.5812    2.4033 H   0  0  0  0  0  0  0  0  0  0  0  0
   -5.3995    0.5685    1.3546 H   0  0  0  0  0  0  0  0  0  0  0  0
   -5.6573   -1.2802   -0.3392 H   0  0  0  0  0  0  0  0  0  0  0  0
    1.3162   -1.7636   -1.3737 H   0  0  0  0  0  0  0  0  0  0  0  0
  1  2  1  0
  2  3  2  3
  3  4  1  0
  4  5  1  0
  5  6  1  0
  6  7  2  3
  7  8  1  0
  8  9  2  3
  9 10  1  0
 10 11  3  0
  9 12  1  0
 12 13  1  0
 13 14  1  0
 14 15  1  0
 14 16  1  0
 16 17  2  3
 17 18  1  0
 18 19  2  3
 19 20  1  0
 19 21  1  0
 21 22  2  3
 22 23  1  0
 23  6  1  0
  1 24  1  0
  1 25  1  0
  1 26  1  0
  2 27  1  0
  3 28  1  0
  4 29  1  0
  4 30  1  0
  5 31  1  0
  7 32  1  0
 12 33  1  0
 12 34  1  0
 13 35  1  0
 14 36  1  1
 15 37  1  0
 15 38  1  0
 15 39  1  0
 16 40  1  0
 23 41  1  0
M  END
>  <candidate_id>  (68) 
CAND_88fdcd39e2

>  <source_generator>  (68) 
selfies

>  <parent_mol_id>  (68) 
JAK2_4138d82a33

>  <canonical_smiles>  (68) 
CC=CCNC1=CN=C(C#N)CN[C@@H](C)C=NN=C(F)N=NN1

>  <inchikey>  (68) 
ZKFJLUIFRNAZGA-JTQLQIEISA-N

>  <valid_rdkit>  (68) 
True

>  <unique_flag>  (68) 
True

>  <novel_flag>  (68) 
True

>  <mw>  (68) 
319.348

>  <logp>  (68) 
1.1754

>  <tpsa>  (68) 
121.68

>  <hbd>  (68) 
3

>  <hba>  (68) 
9

>  <rotatable_bonds>  (68) 
3

>  <qed>  (68) 
0.5337

>  <sa_score>  (68) 
3.075

>  <murcko_scaffold>  (68) 
C1=CNN=NC=NN=CCNCC=N1

>  <max_ring_size>  (68) 
14

>  <has_macrocycle_12_20>  (68) 
True

>  <has_constrained_ring_8_11>  (68) 
False

>  <passes_basic_filters>  (68) 
True

>  <generation_notes>  (68) 
selfies_token_mutation

>  <best_score>  (68) 
nan

>  <qed_admet>  (68) 
0.5337

>  <sa_score_admet>  (68) 
3.075

>  <mw_admet>  (68) 
319.348

>  <logp_admet>  (68) 
1.1754

>  <tpsa_admet>  (68) 
121.68

>  <hbd_admet>  (68) 
3

>  <hba_admet>  (68) 
9

>  <rotatable_bonds_admet>  (68) 
3

>  <lipinski_violations>  (68) 
0

>  <veber_pass>  (68) 
True

>  <admet_score>  (68) 
0.790165

>  <synthesis_score>  (68) 
0.769444

>  <safety_proxy_score>  (68) 
1.0

>  <main_risk>  (68) 
no_major_descriptor_risk

>  <pose_score>  (68) 
0.5

>  <pose_decision>  (68) 
nan

>  <contacts_within_4A>  (68) 
nan

>  <hard_clashes_lt_1_8A>  (68) 
nan

>  <smiles>  (68) 
CC=CCNC1=CN=C(C#N)CN[C@@H](C)C=NN=C(F)N=NN1

>  <docking_score>  (68) 
nan

>  <diversity_cluster>  (68) 
scaffold_dd82e19c

>  <docking_score_scaled>  (68) 
0.0

>  <novelty_score>  (68) 
1.0

>  <final_weighted_score>  (68) 
0.49845

>  <rank>  (68) 
1174

>  <decision>  (68) 
await_docking

>  <diverse_rank>  (68) 
783

>  <selection_tier>  (68) 
await_docking

$$$$
CAND_ecf01c944b
     RDKit          3D

 52 52  0  0  0  0  0  0  0  0999 V2000
   -8.3060    0.9112    2.0430 C   0  0  0  0  0  0  0  0  0  0  0  0
   -7.7101    0.2306    3.1413 O   0  0  0  0  0  0  0  0  0  0  0  0
   -6.4997   -0.3684    2.9217 C   0  0  0  0  0  0  0  0  0  0  0  0
   -5.7718   -0.4218    1.7959 C   0  0  0  0  0  0  0  0  0  0  0  0
   -4.4971   -1.1012    1.7304 C   0  0  0  0  0  0  0  0  0  0  0  0
   -3.7603   -1.1663    0.6100 C   0  0  0  0  0  0  0  0  0  0  0  0
   -2.4305   -1.8741    0.5244 C   0  0  0  0  0  0  0  0  0  0  0  0
   -1.2786   -1.0614    0.0979 N   0  0  0  0  0  0  0  0  0  0  0  0
   -0.9606   -0.0110    1.0789 C   0  0  0  0  0  0  0  0  0  0  0  0
   -0.3555   -0.5374    2.3088 N   0  0  0  0  0  0  0  0  0  0  0  0
    0.9049   -0.8255    2.2879 C   0  0  0  0  0  0  0  0  0  0  0  0
    1.8490   -0.7262    1.1038 C   0  0  0  0  0  0  0  0  0  0  0  0
    3.2050   -1.2703    1.4549 C   0  0  0  0  0  0  0  0  0  0  0  0
    4.3986   -0.7142    1.1939 C   0  0  0  0  0  0  0  0  0  0  0  0
    4.6612    0.5204    0.4818 C   0  0  0  0  0  0  0  0  0  0  0  0
    4.4578    0.7633   -0.8314 C   0  0  0  0  0  0  0  0  0  0  0  0
    5.0362    2.3212   -1.4396 S   0  0  0  0  0  0  0  0  0  0  0  0
    6.7876    2.0378   -1.5377 C   0  0  0  0  0  0  0  0  0  0  0  0
    4.8281    3.3465   -0.4317 O   0  0  0  0  0  0  0  0  0  0  0  0
    4.5820    2.5410   -2.8011 O   0  0  0  0  0  0  0  0  0  0  0  0
    3.9110   -0.2128   -1.7601 C   0  0  0  0  0  0  0  0  0  0  0  0
    2.7074   -0.1760   -2.3552 C   0  0  0  0  0  0  0  0  0  0  0  0
    1.7350    0.8899   -2.2545 C   0  0  0  0  0  0  0  0  0  0  0  0
    0.4207    0.7051   -2.0687 C   0  0  0  0  0  0  0  0  0  0  0  0
   -0.2538   -0.4702   -1.8733 N   0  0  0  0  0  0  0  0  0  0  0  0
   -1.4748   -0.4800   -1.2145 N   0  0  0  0  0  0  0  0  0  0  0  0
   -9.2567    1.3324    2.3834 H   0  0  0  0  0  0  0  0  0  0  0  0
   -7.6726    1.7376    1.7040 H   0  0  0  0  0  0  0  0  0  0  0  0
   -8.5182    0.2188    1.2218 H   0  0  0  0  0  0  0  0  0  0  0  0
   -6.1757   -0.8324    3.8483 H   0  0  0  0  0  0  0  0  0  0  0  0
   -6.1200    0.0530    0.8842 H   0  0  0  0  0  0  0  0  0  0  0  0
   -4.1291   -1.5663    2.6438 H   0  0  0  0  0  0  0  0  0  0  0  0
   -4.1199   -0.6996   -0.3028 H   0  0  0  0  0  0  0  0  0  0  0  0
   -2.1914   -2.3579    1.4803 H   0  0  0  0  0  0  0  0  0  0  0  0
   -2.5451   -2.7049   -0.1850 H   0  0  0  0  0  0  0  0  0  0  0  0
   -1.8552    0.5601    1.3574 H   0  0  0  0  0  0  0  0  0  0  0  0
   -0.2927    0.7478    0.6537 H   0  0  0  0  0  0  0  0  0  0  0  0
    1.3384   -1.1842    3.2375 H   0  0  0  0  0  0  0  0  0  0  0  0
    1.4429   -1.3271    0.2873 H   0  0  0  0  0  0  0  0  0  0  0  0
    1.9031    0.3226    0.8015 H   0  0  0  0  0  0  0  0  0  0  0  0
    3.2057   -2.2214    1.9875 H   0  0  0  0  0  0  0  0  0  0  0  0
    5.2906   -1.2122    1.5748 H   0  0  0  0  0  0  0  0  0  0  0  0
    5.1292    1.2826    1.1070 H   0  0  0  0  0  0  0  0  0  0  0  0
    7.1788    1.8249   -0.5412 H   0  0  0  0  0  0  0  0  0  0  0  0
    6.9771    1.2038   -2.2164 H   0  0  0  0  0  0  0  0  0  0  0  0
    7.2545    2.9446   -1.9289 H   0  0  0  0  0  0  0  0  0  0  0  0
    4.5319   -1.0931   -1.9167 H   0  0  0  0  0  0  0  0  0  0  0  0
    2.4108   -1.0247   -2.9697 H   0  0  0  0  0  0  0  0  0  0  0  0
    2.1007    1.9120   -2.3194 H   0  0  0  0  0  0  0  0  0  0  0  0
   -0.2229    1.5800   -1.9871 H   0  0  0  0  0  0  0  0  0  0  0  0
    0.2957   -1.3260   -1.8619 H   0  0  0  0  0  0  0  0  0  0  0  0
   -2.1455   -1.0203   -1.7726 H   0  0  0  0  0  0  0  0  0  0  0  0
  1  2  1  0
  2  3  1  0
  3  4  2  3
  4  5  1  0
  5  6  2  3
  6  7  1  0
  7  8  1  0
  8  9  1  0
  9 10  1  0
 10 11  2  3
 11 12  1  0
 12 13  1  0
 13 14  2  3
 14 15  1  0
 15 16  2  3
 16 17  1  0
 17 18  1  0
 17 19  2  0
 17 20  2  0
 16 21  1  0
 21 22  2  3
 22 23  1  0
 23 24  2  3
 24 25  1  0
 25 26  1  0
 26  8  1  0
  1 27  1  0
  1 28  1  0
  1 29  1  0
  3 30  1  0
  4 31  1  0
  5 32  1  0
  6 33  1  0
  7 34  1  0
  7 35  1  0
  9 36  1  0
  9 37  1  0
 11 38  1  0
 12 39  1  0
 12 40  1  0
 13 41  1  0
 14 42  1  0
 15 43  1  0
 18 44  1  0
 18 45  1  0
 18 46  1  0
 21 47  1  0
 22 48  1  0
 23 49  1  0
 24 50  1  0
 25 51  1  0
 26 52  1  0
M  END
>  <candidate_id>  (69) 
CAND_ecf01c944b

>  <source_generator>  (69) 
selfies

>  <parent_mol_id>  (69) 
JAK2_d4de330de6

>  <canonical_smiles>  (69) 
COC=CC=CCN1CN=CCC=CC=C(S(C)(=O)=O)C=CC=CNN1

>  <inchikey>  (69) 
VLHOMRLXLOCZHR-UHFFFAOYSA-N

>  <valid_rdkit>  (69) 
True

>  <unique_flag>  (69) 
True

>  <novel_flag>  (69) 
True

>  <mw>  (69) 
378.498

>  <logp>  (69) 
2.0005

>  <tpsa>  (69) 
83.03

>  <hbd>  (69) 
2

>  <hba>  (69) 
7

>  <rotatable_bonds>  (69) 
5

>  <qed>  (69) 
0.5624

>  <sa_score>  (69) 
3.233

>  <murcko_scaffold>  (69) 
C1=CC=CCC=NCNNNC=CC=C1

>  <max_ring_size>  (69) 
15

>  <has_macrocycle_12_20>  (69) 
True

>  <has_constrained_ring_8_11>  (69) 
False

>  <passes_basic_filters>  (69) 
True

>  <generation_notes>  (69) 
selfies_token_mutation

>  <best_score>  (69) 
nan

>  <qed_admet>  (69) 
0.5624

>  <sa_score_admet>  (69) 
3.233

>  <mw_admet>  (69) 
378.498

>  <logp_admet>  (69) 
2.0005

>  <tpsa_admet>  (69) 
83.03

>  <hbd_admet>  (69) 
2

>  <hba_admet>  (69) 
7

>  <rotatable_bonds_admet>  (69) 
5

>  <lipinski_violations>  (69) 
0

>  <veber_pass>  (69) 
True

>  <admet_score>  (69) 
0.80308

>  <synthesis_score>  (69) 
0.751889

>  <safety_proxy_score>  (69) 
1.0

>  <main_risk>  (69) 
no_major_descriptor_risk

>  <pose_score>  (69) 
0.5

>  <pose_decision>  (69) 
nan

>  <contacts_within_4A>  (69) 
nan

>  <hard_clashes_lt_1_8A>  (69) 
nan

>  <smiles>  (69) 
COC=CC=CCN1CN=CCC=CC=C(S(C)(=O)=O)C=CC=CNN1

>  <docking_score>  (69) 
nan

>  <diversity_cluster>  (69) 
scaffold_186119ed

>  <docking_score_scaled>  (69) 
0.0

>  <novelty_score>  (69) 
1.0

>  <final_weighted_score>  (69) 
0.498399

>  <rank>  (69) 
1179

>  <decision>  (69) 
await_docking

>  <diverse_rank>  (69) 
785

>  <selection_tier>  (69) 
await_docking

$$$$
CAND_ecbebacf17
     RDKit          3D

 62 65  0  0  0  0  0  0  0  0999 V2000
    1.1760    0.0655    2.5931 C   0  0  0  0  0  0  0  0  0  0  0  0
    0.6842    0.2061    1.1461 C   0  0  2  0  0  0  0  0  0  0  0  0
    0.8313   -1.0868    0.3064 C   0  0  0  0  0  0  0  0  0  0  0  0
    0.0035   -2.2437    0.8939 C   0  0  0  0  0  0  0  0  0  0  0  0
   -0.4215   -3.2831   -0.1590 C   0  0  0  0  0  0  0  0  0  0  0  0
   -1.8937   -3.6952   -0.0076 C   0  0  0  0  0  0  0  0  0  0  0  0
   -2.9104   -2.9138   -0.8602 C   0  0  0  0  0  0  0  0  0  0  0  0
   -2.7070   -1.3981   -0.9364 C   0  0  0  0  0  0  0  0  0  0  0  0
   -3.9375   -0.6747   -1.5091 C   0  0  0  0  0  0  0  0  0  0  0  0
   -3.6485    0.7256   -2.0722 C   0  0  0  0  0  0  0  0  0  0  0  0
   -2.9256    1.6188   -1.1210 C   0  0  0  0  0  0  0  0  0  0  0  0
   -1.5677    1.7951   -0.9328 C   0  0  0  0  0  0  0  0  0  0  0  0
   -1.3592    2.6602    0.1837 C   0  0  0  0  0  0  0  0  0  0  0  0
   -0.2636    3.1233    0.9666 C   0  0  0  0  0  0  0  0  0  0  0  0
   -0.5683    4.0483    1.9259 N   0  0  0  0  0  0  0  0  0  0  0  0
   -1.8471    4.4178    2.1289 C   0  0  0  0  0  0  0  0  0  0  0  0
   -2.9449    3.9762    1.5016 N   0  0  0  0  0  0  0  0  0  0  0  0
   -2.6287    3.0992    0.5405 C   0  0  0  0  0  0  0  0  0  0  0  0
   -3.5560    2.4624   -0.2420 N   0  0  0  0  0  0  0  0  0  0  0  0
    1.0658    2.6818    0.8843 N   0  0  0  0  0  0  0  0  0  0  0  0
    2.0209    3.4244    1.6964 C   0  0  0  0  0  0  0  0  0  0  0  0
    1.3812    1.3447    0.3526 C   0  0  1  0  0  0  0  0  0  0  0  0
    2.8786    1.0067    0.1771 C   0  0  0  0  0  0  0  0  0  0  0  0
    3.0929   -0.3228   -0.4384 N   0  0  0  0  0  0  0  0  0  0  0  0
    4.1742   -0.4631   -1.3164 C   0  0  0  0  0  0  0  0  0  0  0  0
    4.8732    0.5008   -1.6290 O   0  0  0  0  0  0  0  0  0  0  0  0
    4.4389   -1.8502   -1.8679 C   0  0  0  0  0  0  0  0  0  0  0  0
    5.6234   -1.8993   -2.7293 C   0  0  0  0  0  0  0  0  0  0  0  0
    6.5497   -2.0176   -3.4195 N   0  0  0  0  0  0  0  0  0  0  0  0
    2.3091   -1.4481    0.0998 C   0  0  0  0  0  0  0  0  0  0  0  0
    0.6306   -0.7274    3.1151 H   0  0  0  0  0  0  0  0  0  0  0  0
    1.0012    0.9884    3.1540 H   0  0  0  0  0  0  0  0  0  0  0  0
    2.2409   -0.1703    2.6606 H   0  0  0  0  0  0  0  0  0  0  0  0
   -0.3883    0.4128    1.2199 H   0  0  0  0  0  0  0  0  0  0  0  0
    0.4128   -0.8578   -0.6836 H   0  0  0  0  0  0  0  0  0  0  0  0
    0.5704   -2.7481    1.6866 H   0  0  0  0  0  0  0  0  0  0  0  0
   -0.8870   -1.8325    1.3823 H   0  0  0  0  0  0  0  0  0  0  0  0
    0.2029   -4.1738   -0.0127 H   0  0  0  0  0  0  0  0  0  0  0  0
   -0.2289   -2.9448   -1.1829 H   0  0  0  0  0  0  0  0  0  0  0  0
   -2.1918   -3.6444    1.0470 H   0  0  0  0  0  0  0  0  0  0  0  0
   -1.9853   -4.7524   -0.2888 H   0  0  0  0  0  0  0  0  0  0  0  0
   -3.9132   -3.1341   -0.4730 H   0  0  0  0  0  0  0  0  0  0  0  0
   -2.8842   -3.3132   -1.8824 H   0  0  0  0  0  0  0  0  0  0  0  0
   -1.8348   -1.1928   -1.5663 H   0  0  0  0  0  0  0  0  0  0  0  0
   -2.5065   -0.9986    0.0627 H   0  0  0  0  0  0  0  0  0  0  0  0
   -4.3768   -1.2748   -2.3158 H   0  0  0  0  0  0  0  0  0  0  0  0
   -4.6990   -0.6034   -0.7220 H   0  0  0  0  0  0  0  0  0  0  0  0
   -3.0499    0.6239   -2.9865 H   0  0  0  0  0  0  0  0  0  0  0  0
   -4.5943    1.1917   -2.3746 H   0  0  0  0  0  0  0  0  0  0  0  0
   -0.8188    1.2871   -1.5210 H   0  0  0  0  0  0  0  0  0  0  0  0
   -2.0067    5.1573    2.9074 H   0  0  0  0  0  0  0  0  0  0  0  0
   -4.5519    2.5973   -0.1451 H   0  0  0  0  0  0  0  0  0  0  0  0
    1.8969    4.5071    1.5713 H   0  0  0  0  0  0  0  0  0  0  0  0
    1.9117    3.1764    2.7575 H   0  0  0  0  0  0  0  0  0  0  0  0
    3.0557    3.2183    1.4107 H   0  0  0  0  0  0  0  0  0  0  0  0
    1.0116    1.3335   -0.6759 H   0  0  0  0  0  0  0  0  0  0  0  0
    3.4112    0.9960    1.1345 H   0  0  0  0  0  0  0  0  0  0  0  0
    3.3498    1.7825   -0.4367 H   0  0  0  0  0  0  0  0  0  0  0  0
    3.5625   -2.1680   -2.4430 H   0  0  0  0  0  0  0  0  0  0  0  0
    4.5798   -2.5420   -1.0305 H   0  0  0  0  0  0  0  0  0  0  0  0
    2.3724   -2.3110   -0.5673 H   0  0  0  0  0  0  0  0  0  0  0  0
    2.7838   -1.7434    1.0423 H   0  0  0  0  0  0  0  0  0  0  0  0
  1  2  1  0
  2  3  1  0
  3  4  1  0
  4  5  1  0
  5  6  1  0
  6  7  1  0
  7  8  1  0
  8  9  1  0
  9 10  1  0
 10 11  1  0
 11 12  2  0
 12 13  1  0
 13 14  2  0
 14 15  1  0
 15 16  2  0
 16 17  1  0
 17 18  2  0
 18 19  1  0
 14 20  1  0
 20 21  1  0
 20 22  1  0
 22 23  1  0
 23 24  1  0
 24 25  1  0
 25 26  2  0
 25 27  1  0
 27 28  1  0
 28 29  3  0
 24 30  1  0
 22  2  1  0
 30  3  1  0
 19 11  1  0
 18 13  1  0
  1 31  1  0
  1 32  1  0
  1 33  1  0
  2 34  1  1
  3 35  1  0
  4 36  1  0
  4 37  1  0
  5 38  1  0
  5 39  1  0
  6 40  1  0
  6 41  1  0
  7 42  1  0
  7 43  1  0
  8 44  1  0
  8 45  1  0
  9 46  1  0
  9 47  1  0
 10 48  1  0
 10 49  1  0
 12 50  1  0
 16 51  1  0
 19 52  1  0
 21 53  1  0
 21 54  1  0
 21 55  1  0
 22 56  1  6
 23 57  1  0
 23 58  1  0
 27 59  1  0
 27 60  1  0
 30 61  1  0
 30 62  1  0
M  END
>  <candidate_id>  (70) 
CAND_ecbebacf17

>  <source_generator>  (70) 
macrocycle_linker

>  <parent_mol_id>  (70) 
JAK2_3f3d946705

>  <canonical_smiles>  (70) 
C[C@@H]1C2CCCCCCCc3cc4c(ncnc4[nH]3)N(C)[C@H]1CN(C(=O)CC#N)C2

>  <inchikey>  (70) 
YXICVTHMWWTJLG-ZYLKAMJESA-N

>  <valid_rdkit>  (70) 
True

>  <unique_flag>  (70) 
True

>  <novel_flag>  (70) 
True

>  <mw>  (70) 
408.55

>  <logp>  (70) 
3.6676

>  <tpsa>  (70) 
88.91

>  <hbd>  (70) 
1

>  <hba>  (70) 
5

>  <rotatable_bonds>  (70) 
1

>  <qed>  (70) 
0.7777

>  <sa_score>  (70) 
4.4

>  <murcko_scaffold>  (70) 
c1nc2c3cc([nH]c3n1)CCCCCCCC1CNC[C@@H](C1)N2

>  <max_ring_size>  (70) 
15

>  <has_macrocycle_12_20>  (70) 
True

>  <has_constrained_ring_8_11>  (70) 
False

>  <passes_basic_filters>  (70) 
True

>  <generation_notes>  (70) 
macrocycle_bridge_alkyl_path7_ring14

>  <best_score>  (70) 
nan

>  <qed_admet>  (70) 
0.7777

>  <sa_score_admet>  (70) 
4.4

>  <mw_admet>  (70) 
408.55

>  <logp_admet>  (70) 
3.6676

>  <tpsa_admet>  (70) 
88.91

>  <hbd_admet>  (70) 
1

>  <hba_admet>  (70) 
5

>  <rotatable_bonds_admet>  (70) 
1

>  <lipinski_violations>  (70) 
0

>  <veber_pass>  (70) 
True

>  <admet_score>  (70) 
0.899965

>  <synthesis_score>  (70) 
0.622222

>  <safety_proxy_score>  (70) 
1.0

>  <main_risk>  (70) 
no_major_descriptor_risk

>  <pose_score>  (70) 
0.5

>  <pose_decision>  (70) 
nan

>  <contacts_within_4A>  (70) 
nan

>  <hard_clashes_lt_1_8A>  (70) 
nan

>  <smiles>  (70) 
C[C@@H]1C2CCCCCCCc3cc4c(ncnc4[nH]3)N(C)[C@H]1CN(C(=O)CC#N)C2

>  <docking_score>  (70) 
nan

>  <diversity_cluster>  (70) 
scaffold_988d038a

>  <docking_score_scaled>  (70) 
0.0

>  <novelty_score>  (70) 
1.0

>  <final_weighted_score>  (70) 
0.498326

>  <rank>  (70) 
1184

>  <decision>  (70) 
await_docking

>  <diverse_rank>  (70) 
790

>  <selection_tier>  (70) 
await_docking

$$$$
CAND_aa7ac5e74d
     RDKit          3D

 41 42  0  0  0  0  0  0  0  0999 V2000
    3.1868   -2.0519    0.6820 C   0  0  0  0  0  0  0  0  0  0  0  0
    2.6021   -0.6459    0.5832 C   0  0  1  0  0  0  0  0  0  0  0  0
    2.9832   -0.0072   -0.7507 C   0  0  0  0  0  0  0  0  0  0  0  0
    3.3473    1.2228   -0.9873 N   0  0  0  0  0  0  0  0  0  0  0  0
    3.4030    2.0858    0.0760 C   0  0  0  0  0  0  0  0  0  0  0  0
    2.4217    2.9016    0.4771 C   0  0  0  0  0  0  0  0  0  0  0  0
    2.5897    3.7075    1.5456 F   0  0  0  0  0  0  0  0  0  0  0  0
    1.1046    2.9583   -0.1849 C   0  0  0  0  0  0  0  0  0  0  0  0
    0.0910    3.5985    0.2953 N   0  0  0  0  0  0  0  0  0  0  0  0
   -1.1273    3.4687   -0.5093 C   0  0  0  0  0  0  0  0  0  0  0  0
   -1.6895    2.0802   -0.6007 C   0  0  0  0  0  0  0  0  0  0  0  0
   -1.4795    1.0404    0.2190 C   0  0  0  0  0  0  0  0  0  0  0  0
   -0.7511    1.2313    1.3397 F   0  0  0  0  0  0  0  0  0  0  0  0
   -2.0166   -0.2244    0.0227 N   0  0  0  0  0  0  0  0  0  0  0  0
   -3.4580   -0.3669    0.3075 C   0  0  0  0  0  0  0  0  0  0  0  0
   -4.0137   -1.6862   -0.1360 C   0  0  0  0  0  0  0  0  0  0  0  0
   -3.2754   -2.7099   -0.5805 C   0  0  0  0  0  0  0  0  0  0  0  0
   -1.7863   -2.6047   -0.6437 C   0  0  0  0  0  0  0  0  0  0  0  0
   -1.2033   -1.4564    0.2242 C   0  0  0  0  0  0  0  0  0  0  0  0
    0.3115   -1.3296   -0.1760 C   0  0  0  0  0  0  0  0  0  0  0  0
    1.1486   -0.5851    0.7714 N   0  0  0  0  0  0  0  0  0  0  0  0
    4.2818   -2.0048    0.6859 H   0  0  0  0  0  0  0  0  0  0  0  0
    2.8707   -2.5468    1.6065 H   0  0  0  0  0  0  0  0  0  0  0  0
    2.9015   -2.6837   -0.1656 H   0  0  0  0  0  0  0  0  0  0  0  0
    3.0479   -0.0574    1.3919 H   0  0  0  0  0  0  0  0  0  0  0  0
    2.9069   -0.6648   -1.6350 H   0  0  0  0  0  0  0  0  0  0  0  0
    4.3458    2.1168    0.6171 H   0  0  0  0  0  0  0  0  0  0  0  0
    1.0286    2.3872   -1.1281 H   0  0  0  0  0  0  0  0  0  0  0  0
   -0.9296    3.8411   -1.5231 H   0  0  0  0  0  0  0  0  0  0  0  0
   -1.8948    4.1282   -0.0889 H   0  0  0  0  0  0  0  0  0  0  0  0
   -2.3123    1.9074   -1.4741 H   0  0  0  0  0  0  0  0  0  0  0  0
   -4.0185    0.4230   -0.2074 H   0  0  0  0  0  0  0  0  0  0  0  0
   -3.6333   -0.2519    1.3842 H   0  0  0  0  0  0  0  0  0  0  0  0
   -5.0950   -1.7872   -0.0984 H   0  0  0  0  0  0  0  0  0  0  0  0
   -3.7475   -3.6278   -0.9164 H   0  0  0  0  0  0  0  0  0  0  0  0
   -1.5039   -2.4707   -1.6959 H   0  0  0  0  0  0  0  0  0  0  0  0
   -1.3517   -3.5557   -0.3123 H   0  0  0  0  0  0  0  0  0  0  0  0
   -1.2668   -1.7452    1.2828 H   0  0  0  0  0  0  0  0  0  0  0  0
    0.3798   -0.8666   -1.1677 H   0  0  0  0  0  0  0  0  0  0  0  0
    0.7050   -2.3484   -0.2604 H   0  0  0  0  0  0  0  0  0  0  0  0
    0.8964   -0.8198    1.7303 H   0  0  0  0  0  0  0  0  0  0  0  0
  1  2  1  0
  2  3  1  0
  3  4  2  3
  4  5  1  0
  5  6  2  3
  6  7  1  0
  6  8  1  0
  8  9  2  3
  9 10  1  0
 10 11  1  0
 11 12  2  3
 12 13  1  0
 12 14  1  0
 14 15  1  0
 15 16  1  0
 16 17  2  0
 17 18  1  0
 18 19  1  0
 19 20  1  0
 20 21  1  0
 21  2  1  0
 19 14  1  0
  1 22  1  0
  1 23  1  0
  1 24  1  0
  2 25  1  1
  3 26  1  0
  5 27  1  0
  8 28  1  0
 10 29  1  0
 10 30  1  0
 11 31  1  0
 15 32  1  0
 15 33  1  0
 16 34  1  0
 17 35  1  0
 18 36  1  0
 18 37  1  0
 19 38  1  0
 20 39  1  0
 20 40  1  0
 21 41  1  0
M  END
>  <candidate_id>  (71) 
CAND_aa7ac5e74d

>  <source_generator>  (71) 
selfies

>  <parent_mol_id>  (71) 
JAK2_fc1e2398b3

>  <canonical_smiles>  (71) 
C[C@H]1C=NC=C(F)C=NCC=C(F)N2CC=CCC2CN1

>  <inchikey>  (71) 
NGIGRYVAQBZZHX-NBFOIZRFSA-N

>  <valid_rdkit>  (71) 
True

>  <unique_flag>  (71) 
True

>  <novel_flag>  (71) 
True

>  <mw>  (71) 
294.349

>  <logp>  (71) 
2.372

>  <tpsa>  (71) 
39.99

>  <hbd>  (71) 
1

>  <hba>  (71) 
4

>  <rotatable_bonds>  (71) 
0

>  <qed>  (71) 
0.5502

>  <sa_score>  (71) 
3.2

>  <murcko_scaffold>  (71) 
C1=CN=CCNCC2CC=CCN2C=CCN=C1

>  <max_ring_size>  (71) 
14

>  <has_macrocycle_12_20>  (71) 
True

>  <has_constrained_ring_8_11>  (71) 
False

>  <passes_basic_filters>  (71) 
True

>  <generation_notes>  (71) 
selfies_token_mutation

>  <best_score>  (71) 
nan

>  <qed_admet>  (71) 
0.5502

>  <sa_score_admet>  (71) 
3.2

>  <mw_admet>  (71) 
294.349

>  <logp_admet>  (71) 
2.372

>  <tpsa_admet>  (71) 
39.99

>  <hbd_admet>  (71) 
1

>  <hba_admet>  (71) 
4

>  <rotatable_bonds_admet>  (71) 
0

>  <lipinski_violations>  (71) 
0

>  <veber_pass>  (71) 
True

>  <admet_score>  (71) 
0.79759

>  <synthesis_score>  (71) 
0.755556

>  <safety_proxy_score>  (71) 
1.0

>  <main_risk>  (71) 
no_major_descriptor_risk

>  <pose_score>  (71) 
0.5

>  <pose_decision>  (71) 
nan

>  <contacts_within_4A>  (71) 
nan

>  <hard_clashes_lt_1_8A>  (71) 
nan

>  <smiles>  (71) 
C[C@H]1C=NC=C(F)C=NCC=C(F)N2CC=CCC2CN1

>  <docking_score>  (71) 
nan

>  <diversity_cluster>  (71) 
scaffold_66b602e6

>  <docking_score_scaled>  (71) 
0.0

>  <novelty_score>  (71) 
1.0

>  <final_weighted_score>  (71) 
0.497851

>  <rank>  (71) 
1197

>  <decision>  (71) 
await_docking

>  <diverse_rank>  (71) 
799

>  <selection_tier>  (71) 
await_docking

$$$$
CAND_754572eec6
     RDKit          3D

 54 57  0  0  0  0  0  0  0  0999 V2000
   -6.5471    1.6149   -0.2068 C   0  0  0  0  0  0  0  0  0  0  0  0
   -5.6872    0.4388   -0.3072 N   0  0  0  0  0  0  0  0  0  0  0  0
   -5.4789   -0.2073    1.0054 C   0  0  0  0  0  0  0  0  0  0  0  0
   -4.0890    0.0081    1.6300 C   0  0  0  0  0  0  0  0  0  0  0  0
   -3.0065   -0.3727    0.7226 N   0  0  0  0  0  0  0  0  0  0  0  0
   -1.7720   -0.6772    1.2582 C   0  0  0  0  0  0  0  0  0  0  0  0
   -1.4910   -0.5155    2.4457 O   0  0  0  0  0  0  0  0  0  0  0  0
   -0.7066   -1.1741    0.3483 C   0  0  0  0  0  0  0  0  0  0  0  0
   -0.9084   -2.2976   -0.3902 C   0  0  0  0  0  0  0  0  0  0  0  0
    0.1752   -2.8020   -1.2489 C   0  0  0  0  0  0  0  0  0  0  0  0
    1.4660   -2.5159   -0.9592 C   0  0  0  0  0  0  0  0  0  0  0  0
    2.5394   -2.5531   -1.9554 C   0  0  0  0  0  0  0  0  0  0  0  0
    3.8272   -2.4378   -1.5795 C   0  0  0  0  0  0  0  0  0  0  0  0
    4.7244   -1.5415   -2.1330 N   0  0  0  0  0  0  0  0  0  0  0  0
    4.3296   -0.3214   -1.9168 C   0  0  0  0  0  0  0  0  0  0  0  0
    5.1524    0.9042   -2.0165 C   0  0  0  0  0  0  0  0  0  0  0  0
    4.7187    2.0408   -1.4342 C   0  0  0  0  0  0  0  0  0  0  0  0
    3.4421    2.1896   -0.7467 C   0  0  0  0  0  0  0  0  0  0  0  0
    3.1155    1.8675    0.5276 C   0  0  0  0  0  0  0  0  0  0  0  0
    4.0627    1.5239    1.5788 C   0  0  0  0  0  0  0  0  0  0  0  0
    4.9825    0.5561    1.5385 C   0  0  0  0  0  0  0  0  0  0  0  0
    6.0231    0.2256    2.8613 Cl  0  0  0  0  0  0  0  0  0  0  0  0
    1.6506    1.8804    0.9815 C   0  0  0  0  0  0  0  0  0  0  0  0
    0.9730    0.7837    0.2972 C   0  0  0  0  0  0  0  0  0  0  0  0
    0.6721    0.4945   -0.8934 N   0  0  0  0  0  0  0  0  0  0  0  0
    0.6519   -0.5826    0.3705 C   0  0  0  0  0  0  0  0  0  0  0  0
    1.7150   -1.6652    0.2919 C   0  0  0  0  0  0  0  0  0  0  0  0
   -3.2991   -0.2480   -0.7132 C   0  0  0  0  0  0  0  0  0  0  0  0
   -4.4161    0.7778   -0.9786 C   0  0  0  0  0  0  0  0  0  0  0  0
   -6.7157    2.0552   -1.1959 H   0  0  0  0  0  0  0  0  0  0  0  0
   -7.5322    1.3382    0.1849 H   0  0  0  0  0  0  0  0  0  0  0  0
   -6.1189    2.3837    0.4465 H   0  0  0  0  0  0  0  0  0  0  0  0
   -6.2535    0.0832    1.7260 H   0  0  0  0  0  0  0  0  0  0  0  0
   -5.6115   -1.2855    0.8467 H   0  0  0  0  0  0  0  0  0  0  0  0
   -4.0034   -0.5657    2.5598 H   0  0  0  0  0  0  0  0  0  0  0  0
   -3.9454    1.0656    1.8836 H   0  0  0  0  0  0  0  0  0  0  0  0
   -1.8548   -2.8276   -0.4044 H   0  0  0  0  0  0  0  0  0  0  0  0
   -0.1111   -3.2884   -2.1771 H   0  0  0  0  0  0  0  0  0  0  0  0
    2.2428   -2.2131   -2.9472 H   0  0  0  0  0  0  0  0  0  0  0  0
    4.1267   -2.7697   -0.5847 H   0  0  0  0  0  0  0  0  0  0  0  0
    3.3113   -0.1358   -1.5387 H   0  0  0  0  0  0  0  0  0  0  0  0
    6.1092    0.8260   -2.5163 H   0  0  0  0  0  0  0  0  0  0  0  0
    5.3221    2.9424   -1.5119 H   0  0  0  0  0  0  0  0  0  0  0  0
    2.6432    2.5081   -1.4215 H   0  0  0  0  0  0  0  0  0  0  0  0
    3.9665    2.1139    2.4905 H   0  0  0  0  0  0  0  0  0  0  0  0
    5.1646   -0.1135    0.7113 H   0  0  0  0  0  0  0  0  0  0  0  0
    1.1782    2.8287    0.7041 H   0  0  0  0  0  0  0  0  0  0  0  0
    1.5465    1.7482    2.0630 H   0  0  0  0  0  0  0  0  0  0  0  0
    2.7007   -1.1981    0.3265 H   0  0  0  0  0  0  0  0  0  0  0  0
    1.6657   -2.3100    1.1799 H   0  0  0  0  0  0  0  0  0  0  0  0
   -3.6053   -1.2365   -1.0744 H   0  0  0  0  0  0  0  0  0  0  0  0
   -2.3957    0.0498   -1.2543 H   0  0  0  0  0  0  0  0  0  0  0  0
   -4.0576    1.7608   -0.6431 H   0  0  0  0  0  0  0  0  0  0  0  0
   -4.5921    0.8462   -2.0583 H   0  0  0  0  0  0  0  0  0  0  0  0
  1  2  1  0
  2  3  1  0
  3  4  1  0
  4  5  1  0
  5  6  1  0
  6  7  2  0
  6  8  1  0
  8  9  2  0
  9 10  1  0
 10 11  2  0
 11 12  1  0
 12 13  2  3
 13 14  1  0
 14 15  2  3
 15 16  1  0
 16 17  2  3
 17 18  1  0
 18 19  2  3
 19 20  1  0
 20 21  2  3
 21 22  1  0
 19 23  1  0
 23 24  1  0
 24 25  2  0
 25 26  1  0
 26 27  1  0
  5 28  1  0
 28 29  1  0
 29  2  1  0
 26  8  1  0
 27 11  1  0
 26 24  1  0
  1 30  1  0
  1 31  1  0
  1 32  1  0
  3 33  1  0
  3 34  1  0
  4 35  1  0
  4 36  1  0
  9 37  1  0
 10 38  1  0
 12 39  1  0
 13 40  1  0
 15 41  1  0
 16 42  1  0
 17 43  1  0
 18 44  1  0
 20 45  1  0
 21 46  1  0
 23 47  1  0
 23 48  1  0
 27 49  1  0
 27 50  1  0
 28 51  1  0
 28 52  1  0
 29 53  1  0
 29 54  1  0
M  END
>  <candidate_id>  (72) 
CAND_754572eec6

>  <source_generator>  (72) 
selfies

>  <parent_mol_id>  (72) 
JAK2_3647a2142d

>  <canonical_smiles>  (72) 
CN1CCN(C(=O)C2=CC=C3C=CN=CC=CC=C(C=CCl)CC4=NC24C3)CC1

>  <inchikey>  (72) 
CABOXQBDQUMELO-UHFFFAOYSA-N

>  <valid_rdkit>  (72) 
True

>  <unique_flag>  (72) 
True

>  <novel_flag>  (72) 
True

>  <mw>  (72) 
408.933

>  <logp>  (72) 
3.4336

>  <tpsa>  (72) 
48.27

>  <hbd>  (72) 
0

>  <hba>  (72) 
4

>  <rotatable_bonds>  (72) 
2

>  <qed>  (72) 
0.7023

>  <sa_score>  (72) 
4.027

>  <murcko_scaffold>  (72) 
O=C(C1=CC=C2C=CN=CC=CC=CCC3=NC13C2)N1CCNCC1

>  <max_ring_size>  (72) 
13

>  <has_macrocycle_12_20>  (72) 
True

>  <has_constrained_ring_8_11>  (72) 
False

>  <passes_basic_filters>  (72) 
True

>  <generation_notes>  (72) 
selfies_token_mutation

>  <best_score>  (72) 
nan

>  <qed_admet>  (72) 
0.7023

>  <sa_score_admet>  (72) 
4.027

>  <mw_admet>  (72) 
408.933

>  <logp_admet>  (72) 
3.4336

>  <tpsa_admet>  (72) 
48.27

>  <hbd_admet>  (72) 
0

>  <hba_admet>  (72) 
4

>  <rotatable_bonds_admet>  (72) 
2

>  <lipinski_violations>  (72) 
0

>  <veber_pass>  (72) 
True

>  <admet_score>  (72) 
0.866035

>  <synthesis_score>  (72) 
0.663667

>  <safety_proxy_score>  (72) 
1.0

>  <main_risk>  (72) 
no_major_descriptor_risk

>  <pose_score>  (72) 
0.5

>  <pose_decision>  (72) 
nan

>  <contacts_within_4A>  (72) 
nan

>  <hard_clashes_lt_1_8A>  (72) 
nan

>  <smiles>  (72) 
CN1CCN(C(=O)C2=CC=C3C=CN=CC=CC=C(C=CCl)CC4=NC24C3)CC1

>  <docking_score>  (72) 
nan

>  <diversity_cluster>  (72) 
scaffold_e6d9f2f3

>  <docking_score_scaled>  (72) 
0.0

>  <novelty_score>  (72) 
1.0

>  <final_weighted_score>  (72) 
0.497757

>  <rank>  (72) 
1201

>  <decision>  (72) 
await_docking

>  <diverse_rank>  (72) 
802

>  <selection_tier>  (72) 
await_docking

$$$$
CAND_baa376c0dd
     RDKit          3D

 58 62  0  0  0  0  0  0  0  0999 V2000
   -5.3514    2.8159   -0.0956 C   0  0  0  0  0  0  0  0  0  0  0  0
   -5.4351    1.5895   -0.6261 C   0  0  0  0  0  0  0  0  0  0  0  0
   -5.2177    0.3650    0.1563 C   0  0  0  0  0  0  0  0  0  0  0  0
   -6.0675    0.1144    1.2480 C   0  0  0  0  0  0  0  0  0  0  0  0
   -5.9416   -1.0506    2.0030 C   0  0  0  0  0  0  0  0  0  0  0  0
   -4.9714   -1.9871    1.6700 C   0  0  0  0  0  0  0  0  0  0  0  0
   -4.1228   -1.7552    0.5865 C   0  0  0  0  0  0  0  0  0  0  0  0
   -4.2170   -0.5739   -0.1825 C   0  0  0  0  0  0  0  0  0  0  0  0
   -3.2671   -0.3495   -1.3533 C   0  0  0  0  0  0  0  0  0  0  0  0
   -3.7141   -1.1124   -2.5196 N   0  0  0  0  0  0  0  0  0  0  0  0
   -1.8309   -0.6875   -1.0313 C   0  0  0  0  0  0  0  0  0  0  0  0
   -0.8930    0.0979   -0.4658 C   0  0  0  0  0  0  0  0  0  0  0  0
   -1.2374    1.4829   -0.0284 C   0  0  0  0  0  0  0  0  0  0  0  0
   -0.4248    2.3115    0.5417 N   0  0  0  0  0  0  0  0  0  0  0  0
    0.8427    1.8550    0.7982 C   0  0  0  0  0  0  0  0  0  0  0  0
    1.2464    0.6506    0.4669 N   0  0  0  0  0  0  0  0  0  0  0  0
    0.4353   -0.2256   -0.2095 N   0  0  0  0  0  0  0  0  0  0  0  0
    1.0755   -1.4999   -0.6587 C   0  0  0  0  0  0  0  0  0  0  0  0
    2.5247   -1.8395   -0.6738 N   0  0  0  0  0  0  0  0  0  0  0  0
    3.0505   -1.9951    0.6999 C   0  0  0  0  0  0  0  0  0  0  0  0
    4.6061   -1.9681    0.8307 C   0  0  0  0  0  0  0  0  0  0  0  0
    5.1592   -0.7728    0.1396 N   0  0  0  0  0  0  0  0  0  0  0  0
    4.8337   -0.9080   -1.3062 C   0  0  0  0  0  0  0  0  0  0  0  0
    3.2869   -0.8814   -1.5083 C   0  0  0  0  0  0  0  0  0  0  0  0
    4.8876    0.4940    0.7264 C   0  0  0  0  0  0  0  0  0  0  0  0
    4.4649    0.5851    2.0594 C   0  0  0  0  0  0  0  0  0  0  0  0
    3.5074    1.5351    2.4050 C   0  0  0  0  0  0  0  0  0  0  0  0
    3.0794    2.4560    1.4490 C   0  0  0  0  0  0  0  0  0  0  0  0
    3.8735    2.6723    0.3283 C   0  0  0  0  0  0  0  0  0  0  0  0
    4.7867    1.6837   -0.0236 C   0  0  0  0  0  0  0  0  0  0  0  0
    5.3853    1.8118   -1.2180 F   0  0  0  0  0  0  0  0  0  0  0  0
    1.7052    2.7748    1.3885 N   0  0  0  0  0  0  0  0  0  0  0  0
   -5.1147    2.9760    0.9521 H   0  0  0  0  0  0  0  0  0  0  0  0
   -5.5151    3.6949   -0.7110 H   0  0  0  0  0  0  0  0  0  0  0  0
   -5.6595    1.4536   -1.6816 H   0  0  0  0  0  0  0  0  0  0  0  0
   -6.8475    0.8270    1.5092 H   0  0  0  0  0  0  0  0  0  0  0  0
   -6.6079   -1.2285    2.8427 H   0  0  0  0  0  0  0  0  0  0  0  0
   -4.8752   -2.9007    2.2510 H   0  0  0  0  0  0  0  0  0  0  0  0
   -3.3778   -2.5108    0.3477 H   0  0  0  0  0  0  0  0  0  0  0  0
   -3.2961    0.6966   -1.6704 H   0  0  0  0  0  0  0  0  0  0  0  0
   -3.7849   -2.0987   -2.2837 H   0  0  0  0  0  0  0  0  0  0  0  0
   -3.0403   -1.0183   -3.2752 H   0  0  0  0  0  0  0  0  0  0  0  0
   -1.5412   -1.7006   -1.2960 H   0  0  0  0  0  0  0  0  0  0  0  0
   -2.2634    1.8311   -0.2078 H   0  0  0  0  0  0  0  0  0  0  0  0
    0.5794   -2.3051   -0.0991 H   0  0  0  0  0  0  0  0  0  0  0  0
    0.7541   -1.6535   -1.6982 H   0  0  0  0  0  0  0  0  0  0  0  0
    2.7018   -2.9592    1.0904 H   0  0  0  0  0  0  0  0  0  0  0  0
    2.6310   -1.2374    1.3660 H   0  0  0  0  0  0  0  0  0  0  0  0
    4.9234   -2.0365    1.8760 H   0  0  0  0  0  0  0  0  0  0  0  0
    5.0145   -2.8703    0.3551 H   0  0  0  0  0  0  0  0  0  0  0  0
    5.2160   -1.8744   -1.6628 H   0  0  0  0  0  0  0  0  0  0  0  0
    5.3360   -0.1687   -1.9339 H   0  0  0  0  0  0  0  0  0  0  0  0
    3.0828   -1.1093   -2.5617 H   0  0  0  0  0  0  0  0  0  0  0  0
    2.9370    0.1420   -1.3489 H   0  0  0  0  0  0  0  0  0  0  0  0
    4.6595   -0.2033    2.7774 H   0  0  0  0  0  0  0  0  0  0  0  0
    2.9484    1.4068    3.3290 H   0  0  0  0  0  0  0  0  0  0  0  0
    3.6280    3.4302   -0.4075 H   0  0  0  0  0  0  0  0  0  0  0  0
    1.4523    3.7286    1.1806 H   0  0  0  0  0  0  0  0  0  0  0  0
  1  2  2  0
  2  3  1  0
  3  4  2  0
  4  5  1  0
  5  6  2  0
  6  7  1  0
  7  8  2  0
  8  9  1  0
  9 10  1  0
  9 11  1  0
 11 12  2  3
 12 13  1  0
 13 14  2  0
 14 15  1  0
 15 16  2  0
 16 17  1  0
 17 18  1  0
 18 19  1  0
 19 20  1  0
 20 21  1  0
 21 22  1  0
 22 23  1  0
 23 24  1  0
 22 25  1  0
 25 26  2  0
 26 27  1  0
 27 28  2  0
 28 29  1  0
 29 30  2  0
 30 31  1  0
 28 32  1  0
  8  3  1  0
 17 12  1  0
 24 19  1  0
 30 25  1  0
 32 15  1  0
  1 33  1  0
  1 34  1  0
  2 35  1  0
  4 36  1  0
  5 37  1  0
  6 38  1  0
  7 39  1  0
  9 40  1  0
 10 41  1  0
 10 42  1  0
 11 43  1  0
 13 44  1  0
 18 45  1  0
 18 46  1  0
 20 47  1  0
 20 48  1  0
 21 49  1  0
 21 50  1  0
 23 51  1  0
 23 52  1  0
 24 53  1  0
 24 54  1  0
 26 55  1  0
 27 56  1  0
 29 57  1  0
 32 58  1  0
M  END
>  <candidate_id>  (73) 
CAND_baa376c0dd

>  <source_generator>  (73) 
selfies

>  <parent_mol_id>  (73) 
JAK2_364f20ca75

>  <canonical_smiles>  (73) 
C=Cc1ccccc1C(N)C=C1C=NC2=NN1CN1CCN(CC1)c1ccc(cc1F)N2

>  <inchikey>  (73) 
BSUZOJRXDIRMHF-UHFFFAOYSA-N

>  <valid_rdkit>  (73) 
True

>  <unique_flag>  (73) 
True

>  <novel_flag>  (73) 
True

>  <mw>  (73) 
431.519

>  <logp>  (73) 
3.215

>  <tpsa>  (73) 
72.49

>  <hbd>  (73) 
2

>  <hba>  (73) 
7

>  <rotatable_bonds>  (73) 
3

>  <qed>  (73) 
0.7809

>  <sa_score>  (73) 
4.478

>  <murcko_scaffold>  (73) 
C1=NC2=NN(CN3CCN(CC3)c3ccc(cc3)N2)C1=CCc1ccccc1

>  <max_ring_size>  (73) 
13

>  <has_macrocycle_12_20>  (73) 
True

>  <has_constrained_ring_8_11>  (73) 
False

>  <passes_basic_filters>  (73) 
True

>  <generation_notes>  (73) 
selfies_token_mutation

>  <best_score>  (73) 
nan

>  <qed_admet>  (73) 
0.7809

>  <sa_score_admet>  (73) 
4.478

>  <mw_admet>  (73) 
431.519

>  <logp_admet>  (73) 
3.215

>  <tpsa_admet>  (73) 
72.49

>  <hbd_admet>  (73) 
2

>  <hba_admet>  (73) 
7

>  <rotatable_bonds_admet>  (73) 
3

>  <lipinski_violations>  (73) 
0

>  <veber_pass>  (73) 
True

>  <admet_score>  (73) 
0.901405

>  <synthesis_score>  (73) 
0.613556

>  <safety_proxy_score>  (73) 
1.0

>  <main_risk>  (73) 
no_major_descriptor_risk

>  <pose_score>  (73) 
0.5

>  <pose_decision>  (73) 
nan

>  <contacts_within_4A>  (73) 
nan

>  <hard_clashes_lt_1_8A>  (73) 
nan

>  <smiles>  (73) 
C=Cc1ccccc1C(N)C=C1C=NC2=NN1CN1CCN(CC1)c1ccc(cc1F)N2

>  <docking_score>  (73) 
nan

>  <diversity_cluster>  (73) 
scaffold_78b359a6

>  <docking_score_scaled>  (73) 
0.0

>  <novelty_score>  (73) 
1.0

>  <final_weighted_score>  (73) 
0.497314

>  <rank>  (73) 
1221

>  <decision>  (73) 
await_docking

>  <diverse_rank>  (73) 
815

>  <selection_tier>  (73) 
await_docking

$$$$
CAND_27e700626f
     RDKit          3D

 56 58  0  0  0  0  0  0  0  0999 V2000
    0.1129    2.2047   -2.5984 C   0  0  0  0  0  0  0  0  0  0  0  0
   -0.5810    1.2491   -1.6240 C   0  0  0  0  0  0  0  0  0  0  0  0
   -0.2045    1.5443   -0.1358 C   0  0  0  0  0  0  0  0  0  0  0  0
    0.9855    0.8819    0.4431 N   0  0  0  0  0  0  0  0  0  0  0  0
    0.7382    0.5847    1.8556 C   0  0  0  0  0  0  0  0  0  0  0  0
    2.2007    1.7001    0.2971 C   0  0  0  0  0  0  0  0  0  0  0  0
    3.4313    1.2761    0.9358 N   0  0  0  0  0  0  0  0  0  0  0  0
    4.3125    0.2564    0.5977 C   0  0  0  0  0  0  0  0  0  0  0  0
    5.1442   -0.2827    1.7687 C   0  0  0  0  0  0  0  0  0  0  0  0
    4.1283   -1.1012    2.9772 Cl  0  0  0  0  0  0  0  0  0  0  0  0
    4.6160   -0.2532   -0.6139 C   0  0  0  0  0  0  0  0  0  0  0  0
    4.2253    0.1140   -1.9533 C   0  0  0  0  0  0  0  0  0  0  0  0
    3.0437   -0.0329   -2.5589 C   0  0  0  0  0  0  0  0  0  0  0  0
    1.8401   -0.4385   -2.0620 N   0  0  0  0  0  0  0  0  0  0  0  0
    0.6297   -0.6481   -2.7985 C   0  0  0  0  0  0  0  0  0  0  0  0
    0.5996   -2.0069   -3.3376 N   0  0  0  0  0  0  0  0  0  0  0  0
   -0.3124   -2.7732   -2.8723 C   0  0  0  0  0  0  0  0  0  0  0  0
   -1.3624   -2.4316   -1.9116 C   0  0  0  0  0  0  0  0  0  0  0  0
   -1.4297   -1.1492   -1.5312 C   0  0  0  0  0  0  0  0  0  0  0  0
   -2.5342   -0.7620   -0.6666 C   0  0  0  0  0  0  0  0  0  0  0  0
   -2.7243   -1.2505    0.5707 C   0  0  0  0  0  0  0  0  0  0  0  0
   -3.8212   -0.8827    1.4499 C   0  0  0  0  0  0  0  0  0  0  0  0
   -4.2478    0.3802    1.6059 C   0  0  0  0  0  0  0  0  0  0  0  0
   -5.3199    0.6527    2.5206 C   0  0  0  0  0  0  0  0  0  0  0  0
   -5.8836   -0.3431    3.2102 C   0  0  0  0  0  0  0  0  0  0  0  0
   -5.5278   -1.6602    3.1341 O   0  0  0  0  0  0  0  0  0  0  0  0
   -4.4393   -2.0099    2.2558 C   0  0  0  0  0  0  0  0  0  0  0  0
   -0.5055   -0.2011   -1.9828 N   0  0  0  0  0  0  0  0  0  0  0  0
   -0.1073    3.2441   -2.3294 H   0  0  0  0  0  0  0  0  0  0  0  0
   -0.2537    2.0538   -3.6196 H   0  0  0  0  0  0  0  0  0  0  0  0
    1.1981    2.1029   -2.6103 H   0  0  0  0  0  0  0  0  0  0  0  0
   -1.6387    1.5336   -1.7188 H   0  0  0  0  0  0  0  0  0  0  0  0
   -0.1586    2.6309    0.0221 H   0  0  0  0  0  0  0  0  0  0  0  0
   -1.0828    1.2402    0.4470 H   0  0  0  0  0  0  0  0  0  0  0  0
   -0.1476   -0.0503    1.9705 H   0  0  0  0  0  0  0  0  0  0  0  0
    0.5891    1.4942    2.4489 H   0  0  0  0  0  0  0  0  0  0  0  0
    1.5598    0.0147    2.2934 H   0  0  0  0  0  0  0  0  0  0  0  0
    1.9888    2.6936    0.7173 H   0  0  0  0  0  0  0  0  0  0  0  0
    2.4023    1.9021   -0.7559 H   0  0  0  0  0  0  0  0  0  0  0  0
    3.4640    1.5368    1.9166 H   0  0  0  0  0  0  0  0  0  0  0  0
    5.6572    0.5448    2.2710 H   0  0  0  0  0  0  0  0  0  0  0  0
    5.9100   -0.9993    1.4558 H   0  0  0  0  0  0  0  0  0  0  0  0
    5.3823   -1.0296   -0.6573 H   0  0  0  0  0  0  0  0  0  0  0  0
    5.0608    0.4313   -2.5761 H   0  0  0  0  0  0  0  0  0  0  0  0
    2.9904    0.2001   -3.6220 H   0  0  0  0  0  0  0  0  0  0  0  0
    1.7427   -0.5520   -1.0556 H   0  0  0  0  0  0  0  0  0  0  0  0
    0.6415   -0.0166   -3.6938 H   0  0  0  0  0  0  0  0  0  0  0  0
   -0.3502   -3.8134   -3.2361 H   0  0  0  0  0  0  0  0  0  0  0  0
   -2.0585   -3.2013   -1.6105 H   0  0  0  0  0  0  0  0  0  0  0  0
   -3.2200   -0.0301   -1.0852 H   0  0  0  0  0  0  0  0  0  0  0  0
   -2.0225   -1.9819    0.9706 H   0  0  0  0  0  0  0  0  0  0  0  0
   -3.8094    1.2166    1.0725 H   0  0  0  0  0  0  0  0  0  0  0  0
   -5.6609    1.6756    2.6365 H   0  0  0  0  0  0  0  0  0  0  0  0
   -6.6971   -0.2011    3.9095 H   0  0  0  0  0  0  0  0  0  0  0  0
   -4.8236   -2.7776    1.5738 H   0  0  0  0  0  0  0  0  0  0  0  0
   -3.6709   -2.4794    2.8814 H   0  0  0  0  0  0  0  0  0  0  0  0
  1  2  1  0
  2  3  1  0
  3  4  1  0
  4  5  1  0
  4  6  1  0
  6  7  1  0
  7  8  1  0
  8  9  1  0
  9 10  1  0
  8 11  2  3
 11 12  1  0
 12 13  2  3
 13 14  1  0
 14 15  1  0
 15 16  1  0
 16 17  2  0
 17 18  1  0
 18 19  2  0
 19 20  1  0
 20 21  2  3
 21 22  1  0
 22 23  2  0
 23 24  1  0
 24 25  2  0
 25 26  1  0
 26 27  1  0
 19 28  1  0
 28  2  1  0
 28 15  1  0
 27 22  1  0
  1 29  1  0
  1 30  1  0
  1 31  1  0
  2 32  1  0
  3 33  1  0
  3 34  1  0
  5 35  1  0
  5 36  1  0
  5 37  1  0
  6 38  1  0
  6 39  1  0
  7 40  1  0
  9 41  1  0
  9 42  1  0
 11 43  1  0
 12 44  1  0
 13 45  1  0
 14 46  1  0
 15 47  1  0
 17 48  1  0
 18 49  1  0
 20 50  1  0
 21 51  1  0
 23 52  1  0
 24 53  1  0
 25 54  1  0
 27 55  1  0
 27 56  1  0
M  END
>  <candidate_id>  (74) 
CAND_27e700626f

>  <source_generator>  (74) 
selfies

>  <parent_mol_id>  (74) 
JAK2_155bd54352

>  <canonical_smiles>  (74) 
CC1CN(C)CNC(CCl)=CC=CNC2N=CC=C(C=CC3=CC=COC3)N12

>  <inchikey>  (74) 
ZPRQNWSMNQSHSU-UHFFFAOYSA-N

>  <valid_rdkit>  (74) 
True

>  <unique_flag>  (74) 
True

>  <novel_flag>  (74) 
True

>  <mw>  (74) 
401.942

>  <logp>  (74) 
2.6738

>  <tpsa>  (74) 
52.13

>  <hbd>  (74) 
2

>  <hba>  (74) 
6

>  <rotatable_bonds>  (74) 
3

>  <qed>  (74) 
0.712

>  <sa_score>  (74) 
4.114

>  <murcko_scaffold>  (74) 
C1=CNCNCCN2C(C=CC3=CC=COC3)=CC=NC2NC=C1

>  <max_ring_size>  (74) 
12

>  <has_macrocycle_12_20>  (74) 
True

>  <has_constrained_ring_8_11>  (74) 
False

>  <passes_basic_filters>  (74) 
True

>  <generation_notes>  (74) 
selfies_token_mutation

>  <best_score>  (74) 
nan

>  <qed_admet>  (74) 
0.712

>  <sa_score_admet>  (74) 
4.114

>  <mw_admet>  (74) 
401.942

>  <logp_admet>  (74) 
2.6738

>  <tpsa_admet>  (74) 
52.13

>  <hbd_admet>  (74) 
2

>  <hba_admet>  (74) 
6

>  <rotatable_bonds_admet>  (74) 
3

>  <lipinski_violations>  (74) 
0

>  <veber_pass>  (74) 
True

>  <admet_score>  (74) 
0.8704

>  <synthesis_score>  (74) 
0.654

>  <safety_proxy_score>  (74) 
1.0

>  <main_risk>  (74) 
no_major_descriptor_risk

>  <pose_score>  (74) 
0.5

>  <pose_decision>  (74) 
nan

>  <contacts_within_4A>  (74) 
nan

>  <hard_clashes_lt_1_8A>  (74) 
nan

>  <smiles>  (74) 
CC1CN(C)CNC(CCl)=CC=CNC2N=CC=C(C=CC3=CC=COC3)N12

>  <docking_score>  (74) 
nan

>  <diversity_cluster>  (74) 
scaffold_170cc216

>  <docking_score_scaled>  (74) 
0.0

>  <novelty_score>  (74) 
1.0

>  <final_weighted_score>  (74) 
0.49718

>  <rank>  (74) 
1229

>  <decision>  (74) 
await_docking

>  <diverse_rank>  (74) 
820

>  <selection_tier>  (74) 
await_docking

$$$$
CAND_98a2ec596b
     RDKit          3D

 66 69  0  0  0  0  0  0  0  0999 V2000
    6.0888   -4.3224    3.1651 N   0  0  0  0  0  0  0  0  0  0  0  0
    5.3589   -4.0192    2.3142 C   0  0  0  0  0  0  0  0  0  0  0  0
    4.4932   -3.6886    1.1794 C   0  0  0  0  0  0  0  0  0  0  0  0
    3.4318   -2.6690    1.5387 C   0  0  0  0  0  0  0  0  0  0  0  0
    3.1946   -2.3575    2.7063 O   0  0  0  0  0  0  0  0  0  0  0  0
    2.7193   -2.0982    0.4847 N   0  0  0  0  0  0  0  0  0  0  0  0
    2.8517   -2.4630   -0.9293 C   0  0  0  0  0  0  0  0  0  0  0  0
    1.4935   -2.4759   -1.6257 C   0  0  0  0  0  0  0  0  0  0  0  0
    0.7349   -1.1272   -1.5170 C   0  0  1  0  0  0  0  0  0  0  0  0
   -0.8093   -1.2889   -1.4906 C   0  0  0  0  0  0  0  0  0  0  0  0
   -1.3789   -2.4947   -0.7281 C   0  0  0  0  0  0  0  0  0  0  0  0
   -2.8019   -2.3420   -0.1732 C   0  0  0  0  0  0  0  0  0  0  0  0
   -3.8251   -1.6202   -1.0632 C   0  0  0  0  0  0  0  0  0  0  0  0
   -4.5826   -0.5506   -0.2730 C   0  0  0  0  0  0  0  0  0  0  0  0
   -3.6326    0.3959    0.2096 O   0  0  0  0  0  0  0  0  0  0  0  0
   -4.1513    1.2534    1.2136 C   0  0  0  0  0  0  0  0  0  0  0  0
   -3.0156    2.0937    1.8027 C   0  0  0  0  0  0  0  0  0  0  0  0
   -1.9943    1.2816    2.6210 C   0  0  0  0  0  0  0  0  0  0  0  0
   -0.9312    0.5314    1.8029 C   0  0  0  0  0  0  0  0  0  0  0  0
    0.1366    1.4512    1.2031 C   0  0  0  0  0  0  0  0  0  0  0  0
    0.5836    1.0374   -0.1298 N   0  0  0  0  0  0  0  0  0  0  0  0
    0.7528    2.0517   -1.0850 C   0  0  0  0  0  0  0  0  0  0  0  0
    0.4541    1.7644   -2.3814 N   0  0  0  0  0  0  0  0  0  0  0  0
    0.5660    2.7176   -3.3245 C   0  0  0  0  0  0  0  0  0  0  0  0
    0.9865    3.9809   -3.1766 N   0  0  0  0  0  0  0  0  0  0  0  0
    1.3168    4.2300   -1.9030 C   0  0  0  0  0  0  0  0  0  0  0  0
    1.8018    5.4304   -1.4622 N   0  0  0  0  0  0  0  0  0  0  0  0
    2.0789    5.3554   -0.1235 C   0  0  0  0  0  0  0  0  0  0  0  0
    1.7513    4.0832    0.2966 C   0  0  0  0  0  0  0  0  0  0  0  0
    1.2410    3.3578   -0.8248 C   0  0  0  0  0  0  0  0  0  0  0  0
    1.3463   -0.2011   -0.4127 C   0  0  1  0  0  0  0  0  0  0  0  0
    1.7441   -1.0432    0.8124 C   0  0  0  0  0  0  0  0  0  0  0  0
    5.1124   -3.2910    0.3681 H   0  0  0  0  0  0  0  0  0  0  0  0
    3.9919   -4.5950    0.8233 H   0  0  0  0  0  0  0  0  0  0  0  0
    3.3149   -3.4473   -1.0334 H   0  0  0  0  0  0  0  0  0  0  0  0
    3.5259   -1.7369   -1.3976 H   0  0  0  0  0  0  0  0  0  0  0  0
    0.9221   -3.3023   -1.1952 H   0  0  0  0  0  0  0  0  0  0  0  0
    1.6279   -2.7272   -2.6850 H   0  0  0  0  0  0  0  0  0  0  0  0
    0.9458   -0.6167   -2.4666 H   0  0  0  0  0  0  0  0  0  0  0  0
   -1.2730   -0.3613   -1.1473 H   0  0  0  0  0  0  0  0  0  0  0  0
   -1.1337   -1.3964   -2.5354 H   0  0  0  0  0  0  0  0  0  0  0  0
   -0.7374   -2.7454    0.1236 H   0  0  0  0  0  0  0  0  0  0  0  0
   -1.3664   -3.3642   -1.3977 H   0  0  0  0  0  0  0  0  0  0  0  0
   -2.7291   -1.8530    0.8048 H   0  0  0  0  0  0  0  0  0  0  0  0
   -3.1862   -3.3457    0.0526 H   0  0  0  0  0  0  0  0  0  0  0  0
   -4.5405   -2.3492   -1.4610 H   0  0  0  0  0  0  0  0  0  0  0  0
   -3.3466   -1.1464   -1.9245 H   0  0  0  0  0  0  0  0  0  0  0  0
   -5.1189   -1.0176    0.5615 H   0  0  0  0  0  0  0  0  0  0  0  0
   -5.3051   -0.0389   -0.9173 H   0  0  0  0  0  0  0  0  0  0  0  0
   -4.9023    1.9117    0.7630 H   0  0  0  0  0  0  0  0  0  0  0  0
   -4.6306    0.6678    2.0066 H   0  0  0  0  0  0  0  0  0  0  0  0
   -2.5095    2.6413    1.0008 H   0  0  0  0  0  0  0  0  0  0  0  0
   -3.4654    2.8382    2.4707 H   0  0  0  0  0  0  0  0  0  0  0  0
   -1.4807    1.9627    3.3114 H   0  0  0  0  0  0  0  0  0  0  0  0
   -2.5330    0.5595    3.2470 H   0  0  0  0  0  0  0  0  0  0  0  0
   -1.4096   -0.0663    1.0329 H   0  0  0  0  0  0  0  0  0  0  0  0
   -0.4375   -0.1767    2.4788 H   0  0  0  0  0  0  0  0  0  0  0  0
    0.9927    1.5214    1.8844 H   0  0  0  0  0  0  0  0  0  0  0  0
   -0.2934    2.4573    1.1558 H   0  0  0  0  0  0  0  0  0  0  0  0
    0.2819    2.4225   -4.3297 H   0  0  0  0  0  0  0  0  0  0  0  0
    1.9428    6.2304   -2.0618 H   0  0  0  0  0  0  0  0  0  0  0  0
    2.4892    6.2031    0.4091 H   0  0  0  0  0  0  0  0  0  0  0  0
    1.8752    3.7144    1.3055 H   0  0  0  0  0  0  0  0  0  0  0  0
    2.3122    0.1454   -0.8157 H   0  0  0  0  0  0  0  0  0  0  0  0
    2.1833   -0.4080    1.5897 H   0  0  0  0  0  0  0  0  0  0  0  0
    0.8768   -1.5448    1.2518 H   0  0  0  0  0  0  0  0  0  0  0  0
  1  2  3  0
  2  3  1  0
  3  4  1  0
  4  5  2  0
  4  6  1  0
  6  7  1  0
  7  8  1  0
  8  9  1  0
  9 10  1  0
 10 11  1  0
 11 12  1  0
 12 13  1  0
 13 14  1  0
 14 15  1  0
 15 16  1  0
 16 17  1  0
 17 18  1  0
 18 19  1  0
 19 20  1  0
 20 21  1  0
 21 22  1  0
 22 23  2  0
 23 24  1  0
 24 25  2  0
 25 26  1  0
 26 27  1  0
 27 28  1  0
 28 29  2  0
 29 30  1  0
 21 31  1  0
 31 32  1  0
 32  6  1  0
 31  9  1  0
 30 22  1  0
 30 26  2  0
  3 33  1  0
  3 34  1  0
  7 35  1  0
  7 36  1  0
  8 37  1  0
  8 38  1  0
  9 39  1  6
 10 40  1  0
 10 41  1  0
 11 42  1  0
 11 43  1  0
 12 44  1  0
 12 45  1  0
 13 46  1  0
 13 47  1  0
 14 48  1  0
 14 49  1  0
 16 50  1  0
 16 51  1  0
 17 52  1  0
 17 53  1  0
 18 54  1  0
 18 55  1  0
 19 56  1  0
 19 57  1  0
 20 58  1  0
 20 59  1  0
 24 60  1  0
 27 61  1  0
 28 62  1  0
 29 63  1  0
 31 64  1  6
 32 65  1  0
 32 66  1  0
M  END
>  <candidate_id>  (75) 
CAND_98a2ec596b

>  <source_generator>  (75) 
macrocycle_linker

>  <parent_mol_id>  (75) 
JAK2_3f3d946705

>  <canonical_smiles>  (75) 
N#CCC(=O)N1CC[C@H]2CCCCCOCCCCCN(c3ncnc4[nH]ccc34)[C@H]2C1

>  <inchikey>  (75) 
XPBLLQCWWBCCCX-CTNGQTDRSA-N

>  <valid_rdkit>  (75) 
True

>  <unique_flag>  (75) 
True

>  <novel_flag>  (75) 
True

>  <mw>  (75) 
438.576

>  <logp>  (75) 
3.656

>  <tpsa>  (75) 
98.14

>  <hbd>  (75) 
1

>  <hba>  (75) 
6

>  <rotatable_bonds>  (75) 
2

>  <qed>  (75) 
0.7684

>  <sa_score>  (75) 
4.442

>  <murcko_scaffold>  (75) 
c1nc(N2CCCCCOCCCCC[C@@H]3CCNC[C@@H]32)c2cc[nH]c2n1

>  <max_ring_size>  (75) 
14

>  <has_macrocycle_12_20>  (75) 
True

>  <has_constrained_ring_8_11>  (75) 
False

>  <passes_basic_filters>  (75) 
True

>  <generation_notes>  (75) 
macrocycle_bridge_oxa_path4_ring13

>  <best_score>  (75) 
nan

>  <qed_admet>  (75) 
0.7684

>  <sa_score_admet>  (75) 
4.442

>  <mw_admet>  (75) 
438.576

>  <logp_admet>  (75) 
3.656

>  <tpsa_admet>  (75) 
98.14

>  <hbd_admet>  (75) 
1

>  <hba_admet>  (75) 
6

>  <rotatable_bonds_admet>  (75) 
2

>  <lipinski_violations>  (75) 
0

>  <veber_pass>  (75) 
True

>  <admet_score>  (75) 
0.89578

>  <synthesis_score>  (75) 
0.617556

>  <safety_proxy_score>  (75) 
1.0

>  <main_risk>  (75) 
no_major_descriptor_risk

>  <pose_score>  (75) 
0.5

>  <pose_decision>  (75) 
nan

>  <contacts_within_4A>  (75) 
nan

>  <hard_clashes_lt_1_8A>  (75) 
nan

>  <smiles>  (75) 
N#CCC(=O)N1CC[C@H]2CCCCCOCCCCCN(c3ncnc4[nH]ccc34)[C@H]2C1

>  <docking_score>  (75) 
nan

>  <diversity_cluster>  (75) 
scaffold_65b6188e

>  <docking_score_scaled>  (75) 
0.0

>  <novelty_score>  (75) 
1.0

>  <final_weighted_score>  (75) 
0.496789

>  <rank>  (75) 
1255

>  <decision>  (75) 
await_docking

>  <diverse_rank>  (75) 
835

>  <selection_tier>  (75) 
await_docking

$$$$
CAND_57118fd3af
     RDKit          3D

 58 61  0  0  0  0  0  0  0  0999 V2000
   -2.7883   -2.0333   -0.5304 C   0  0  0  0  0  0  0  0  0  0  0  0
   -2.1599   -0.8691    0.0939 N   0  0  0  0  0  0  0  0  0  0  0  0
   -3.1356   -0.0586    0.6945 C   0  0  0  0  0  0  0  0  0  0  0  0
   -3.3218   -0.1004    2.0397 N   0  0  0  0  0  0  0  0  0  0  0  0
   -4.2745    0.6794    2.5896 C   0  0  0  0  0  0  0  0  0  0  0  0
   -5.1055    1.5378    1.9757 N   0  0  0  0  0  0  0  0  0  0  0  0
   -4.8860    1.5586    0.6540 C   0  0  0  0  0  0  0  0  0  0  0  0
   -5.5695    2.3410   -0.2363 N   0  0  0  0  0  0  0  0  0  0  0  0
   -5.0898    2.1296   -1.5042 C   0  0  0  0  0  0  0  0  0  0  0  0
   -4.0820    1.1916   -1.4186 C   0  0  0  0  0  0  0  0  0  0  0  0
   -3.9513    0.8164   -0.0499 C   0  0  0  0  0  0  0  0  0  0  0  0
   -0.9153   -1.0678    0.8744 C   0  0  1  0  0  0  0  0  0  0  0  0
    0.0931   -2.0300    0.1769 C   0  0  0  0  0  0  0  0  0  0  0  0
    1.5088   -1.7886    0.5143 N   0  0  0  0  0  0  0  0  0  0  0  0
    1.7322   -1.3299    1.8740 C   0  0  0  0  0  0  0  0  0  0  0  0
    1.0104   -0.0054    2.1474 C   0  0  0  0  0  0  0  0  0  0  0  0
   -0.2235    0.2783    1.2476 C   0  0  1  0  0  0  0  0  0  0  0  0
    0.0689    1.3034    0.1001 C   0  0  0  0  0  0  0  0  0  0  0  0
    0.3585    0.7656   -1.3037 C   0  0  0  0  0  0  0  0  0  0  0  0
    1.0644    1.7372   -2.2561 C   0  0  0  0  0  0  0  0  0  0  0  0
    2.5358    2.0609   -1.9354 C   0  0  0  0  0  0  0  0  0  0  0  0
    3.4085    0.8922   -1.7051 N   0  0  0  0  0  0  0  0  0  0  0  0
    3.6761    0.7354   -0.2818 C   0  0  0  0  0  0  0  0  0  0  0  0
    4.4950   -0.4836    0.1340 C   0  0  0  0  0  0  0  0  0  0  0  0
    3.9623   -1.8774   -0.2223 C   0  0  0  0  0  0  0  0  0  0  0  0
    4.4461   -2.8943    0.7249 C   0  0  0  0  0  0  0  0  0  0  0  0
    4.8313   -3.6687    1.4994 N   0  0  0  0  0  0  0  0  0  0  0  0
    2.4653   -2.0762   -0.4499 C   0  0  0  0  0  0  0  0  0  0  0  0
    2.1180   -2.5090   -1.5584 O   0  0  0  0  0  0  0  0  0  0  0  0
   -3.1064   -2.7568    0.2294 H   0  0  0  0  0  0  0  0  0  0  0  0
   -2.1009   -2.5393   -1.2140 H   0  0  0  0  0  0  0  0  0  0  0  0
   -3.6622   -1.7616   -1.1339 H   0  0  0  0  0  0  0  0  0  0  0  0
   -4.3830    0.6023    3.6673 H   0  0  0  0  0  0  0  0  0  0  0  0
   -6.3081    2.9768    0.0277 H   0  0  0  0  0  0  0  0  0  0  0  0
   -5.5009    2.6646   -2.3500 H   0  0  0  0  0  0  0  0  0  0  0  0
   -3.4926    0.8127   -2.2436 H   0  0  0  0  0  0  0  0  0  0  0  0
   -1.1863   -1.5621    1.8200 H   0  0  0  0  0  0  0  0  0  0  0  0
   -0.0340   -2.0037   -0.9093 H   0  0  0  0  0  0  0  0  0  0  0  0
   -0.1290   -3.0620    0.4783 H   0  0  0  0  0  0  0  0  0  0  0  0
    2.7910   -1.2339    2.1114 H   0  0  0  0  0  0  0  0  0  0  0  0
    1.3378   -2.1095    2.5379 H   0  0  0  0  0  0  0  0  0  0  0  0
    0.6788   -0.0320    3.1949 H   0  0  0  0  0  0  0  0  0  0  0  0
    1.7165    0.8306    2.1111 H   0  0  0  0  0  0  0  0  0  0  0  0
   -0.9003    0.8329    1.9127 H   0  0  0  0  0  0  0  0  0  0  0  0
    0.8650    1.9836    0.4217 H   0  0  0  0  0  0  0  0  0  0  0  0
   -0.8159    1.9488    0.0067 H   0  0  0  0  0  0  0  0  0  0  0  0
   -0.5904    0.4695   -1.7666 H   0  0  0  0  0  0  0  0  0  0  0  0
    0.9702   -0.1238   -1.2663 H   0  0  0  0  0  0  0  0  0  0  0  0
    0.4968    2.6739   -2.3112 H   0  0  0  0  0  0  0  0  0  0  0  0
    1.0302    1.2973   -3.2618 H   0  0  0  0  0  0  0  0  0  0  0  0
    2.9463    2.5996   -2.7982 H   0  0  0  0  0  0  0  0  0  0  0  0
    2.5831    2.7720   -1.1011 H   0  0  0  0  0  0  0  0  0  0  0  0
    2.9808    0.0615   -2.1166 H   0  0  0  0  0  0  0  0  0  0  0  0
    2.7410    0.7195    0.2650 H   0  0  0  0  0  0  0  0  0  0  0  0
    4.2227    1.6209    0.0682 H   0  0  0  0  0  0  0  0  0  0  0  0
    4.6541   -0.4095    1.2186 H   0  0  0  0  0  0  0  0  0  0  0  0
    5.5039   -0.3865   -0.2928 H   0  0  0  0  0  0  0  0  0  0  0  0
    4.4204   -2.1211   -1.1937 H   0  0  0  0  0  0  0  0  0  0  0  0
  1  2  1  0
  2  3  1  0
  3  4  1  0
  4  5  2  0
  5  6  1  0
  6  7  2  0
  7  8  1  0
  8  9  1  0
  9 10  2  0
 10 11  1  0
  2 12  1  0
 12 13  1  0
 13 14  1  0
 14 15  1  0
 15 16  1  0
 16 17  1  0
 17 18  1  0
 18 19  1  0
 19 20  1  0
 20 21  1  0
 21 22  1  0
 22 23  1  0
 23 24  1  0
 24 25  1  0
 25 26  1  0
 26 27  3  0
 25 28  1  0
 28 29  2  0
 11  3  2  0
 17 12  1  0
 11  7  1  0
 28 14  1  0
  1 30  1  0
  1 31  1  0
  1 32  1  0
  5 33  1  0
  8 34  1  0
  9 35  1  0
 10 36  1  0
 12 37  1  1
 13 38  1  0
 13 39  1  0
 15 40  1  0
 15 41  1  0
 16 42  1  0
 16 43  1  0
 17 44  1  1
 18 45  1  0
 18 46  1  0
 19 47  1  0
 19 48  1  0
 20 49  1  0
 20 50  1  0
 21 51  1  0
 21 52  1  0
 22 53  1  0
 23 54  1  0
 23 55  1  0
 24 56  1  0
 24 57  1  0
 25 58  1  0
M  END
>  <candidate_id>  (76) 
CAND_57118fd3af

>  <source_generator>  (76) 
macrocycle_linker

>  <parent_mol_id>  (76) 
JAK2_3f3d946705

>  <canonical_smiles>  (76) 
CN(c1ncnc2[nH]ccc12)[C@H]1CN2CC[C@H]1CCCCNCCC(C#N)C2=O

>  <inchikey>  (76) 
LPEKYRVHKZBLBH-AGPBCMBSSA-N

>  <valid_rdkit>  (76) 
True

>  <unique_flag>  (76) 
True

>  <novel_flag>  (76) 
True

>  <mw>  (76) 
395.511

>  <logp>  (76) 
1.9146

>  <tpsa>  (76) 
100.94

>  <hbd>  (76) 
2

>  <hba>  (76) 
6

>  <rotatable_bonds>  (76) 
2

>  <qed>  (76) 
0.8056

>  <sa_score>  (76) 
4.653

>  <murcko_scaffold>  (76) 
O=C1CCCNCCCC[C@@H]2CCN1C[C@@H]2Nc1ncnc2[nH]ccc12

>  <max_ring_size>  (76) 
13

>  <has_macrocycle_12_20>  (76) 
True

>  <has_constrained_ring_8_11>  (76) 
False

>  <passes_basic_filters>  (76) 
True

>  <generation_notes>  (76) 
macrocycle_bridge_aza_path6_ring12

>  <best_score>  (76) 
nan

>  <qed_admet>  (76) 
0.8056

>  <sa_score_admet>  (76) 
4.653

>  <mw_admet>  (76) 
395.511

>  <logp_admet>  (76) 
1.9146

>  <tpsa_admet>  (76) 
100.94

>  <hbd_admet>  (76) 
2

>  <hba_admet>  (76) 
6

>  <rotatable_bonds_admet>  (76) 
2

>  <lipinski_violations>  (76) 
0

>  <veber_pass>  (76) 
True

>  <admet_score>  (76) 
0.91252

>  <synthesis_score>  (76) 
0.594111

>  <safety_proxy_score>  (76) 
1.0

>  <main_risk>  (76) 
no_major_descriptor_risk

>  <pose_score>  (76) 
0.5

>  <pose_decision>  (76) 
nan

>  <contacts_within_4A>  (76) 
nan

>  <hard_clashes_lt_1_8A>  (76) 
nan

>  <smiles>  (76) 
CN(c1ncnc2[nH]ccc12)[C@H]1CN2CC[C@H]1CCCCNCCC(C#N)C2=O

>  <docking_score>  (76) 
nan

>  <diversity_cluster>  (76) 
scaffold_d2f3601a

>  <docking_score_scaled>  (76) 
0.0

>  <novelty_score>  (76) 
1.0

>  <final_weighted_score>  (76) 
0.496621

>  <rank>  (76) 
1270

>  <decision>  (76) 
await_docking

>  <diverse_rank>  (76) 
847

>  <selection_tier>  (76) 
await_docking

$$$$
CAND_b8508fb54f
     RDKit          3D

 53 56  0  0  0  0  0  0  0  0999 V2000
    5.4857    1.9114    1.1612 C   0  0  0  0  0  0  0  0  0  0  0  0
    4.1546    1.8219    0.6595 O   0  0  0  0  0  0  0  0  0  0  0  0
    3.8511    0.5448    0.2485 C   0  0  0  0  0  0  0  0  0  0  0  0
    2.6251   -0.0270    0.3031 C   0  0  0  0  0  0  0  0  0  0  0  0
    1.4289    0.6899    0.8157 C   0  0  0  0  0  0  0  0  0  0  0  0
    0.3331   -0.0261    1.1345 C   0  0  0  0  0  0  0  0  0  0  0  0
    0.2305   -1.5197    0.9917 C   0  0  0  0  0  0  0  0  0  0  0  0
    1.3554   -2.0942    0.1370 C   0  0  0  0  0  0  0  0  0  0  0  0
    2.4665   -1.4094   -0.1910 C   0  0  0  0  0  0  0  0  0  0  0  0
    3.5117   -1.8816   -0.9593 O   0  0  0  0  0  0  0  0  0  0  0  0
    3.4010   -3.1863   -1.5121 C   0  0  0  0  0  0  0  0  0  0  0  0
   -1.1167   -2.1348    0.5777 C   0  0  0  0  0  0  0  0  0  0  0  0
   -1.2599   -3.5202    0.8763 C   0  0  0  0  0  0  0  0  0  0  0  0
   -2.3869   -4.2579    0.5133 C   0  0  0  0  0  0  0  0  0  0  0  0
   -3.4219   -3.6335   -0.1587 C   0  0  0  0  0  0  0  0  0  0  0  0
   -3.3277   -2.2729   -0.4401 C   0  0  0  0  0  0  0  0  0  0  0  0
   -2.1953   -1.5021   -0.0733 C   0  0  0  0  0  0  0  0  0  0  0  0
   -2.3485   -0.0443   -0.3553 C   0  0  0  0  0  0  0  0  0  0  0  0
   -1.7235    0.4160   -1.4553 C   0  0  0  0  0  0  0  0  0  0  0  0
   -1.6905    1.7152   -2.1018 C   0  0  0  0  0  0  0  0  0  0  0  0
   -1.5950    2.9548   -1.5986 C   0  0  0  0  0  0  0  0  0  0  0  0
   -1.6620    3.2707   -0.1425 C   0  0  0  0  0  0  0  0  0  0  0  0
   -0.6642    3.2388    0.6751 N   0  0  0  0  0  0  0  0  0  0  0  0
    0.6724    2.9742    0.1775 C   0  0  0  0  0  0  0  0  0  0  0  0
    1.4720    2.0627    0.9640 N   0  0  0  0  0  0  0  0  0  0  0  0
   -2.9099    3.6750    0.2918 N   0  0  0  0  0  0  0  0  0  0  0  0
   -3.5150    2.7963    1.1966 O   0  0  0  0  0  0  0  0  0  0  0  0
   -4.0488    1.6959    0.4479 C   0  0  0  0  0  0  0  0  0  0  0  0
   -3.1989    0.5501    0.5467 N   0  0  0  0  0  0  0  0  0  0  0  0
    5.6370    2.9261    1.5408 H   0  0  0  0  0  0  0  0  0  0  0  0
    6.2146    1.7320    0.3636 H   0  0  0  0  0  0  0  0  0  0  0  0
    5.6407    1.2084    1.9869 H   0  0  0  0  0  0  0  0  0  0  0  0
    4.7142    0.0215   -0.1464 H   0  0  0  0  0  0  0  0  0  0  0  0
   -0.5083    0.5028    1.5745 H   0  0  0  0  0  0  0  0  0  0  0  0
    0.3994   -1.8966    2.0133 H   0  0  0  0  0  0  0  0  0  0  0  0
    1.2307   -3.1180   -0.1928 H   0  0  0  0  0  0  0  0  0  0  0  0
    4.2996   -3.3766   -2.1065 H   0  0  0  0  0  0  0  0  0  0  0  0
    2.5357   -3.2590   -2.1789 H   0  0  0  0  0  0  0  0  0  0  0  0
    3.3548   -3.9436   -0.7228 H   0  0  0  0  0  0  0  0  0  0  0  0
   -0.4621   -4.0429    1.4046 H   0  0  0  0  0  0  0  0  0  0  0  0
   -2.4491   -5.3151    0.7566 H   0  0  0  0  0  0  0  0  0  0  0  0
   -4.3074   -4.1916   -0.4484 H   0  0  0  0  0  0  0  0  0  0  0  0
   -4.1655   -1.7877   -0.9401 H   0  0  0  0  0  0  0  0  0  0  0  0
   -1.1301   -0.3091   -2.0191 H   0  0  0  0  0  0  0  0  0  0  0  0
   -1.6486    1.6333   -3.1888 H   0  0  0  0  0  0  0  0  0  0  0  0
   -1.5414    3.8173   -2.2533 H   0  0  0  0  0  0  0  0  0  0  0  0
    1.1987    3.9371    0.1787 H   0  0  0  0  0  0  0  0  0  0  0  0
    0.7106    2.6444   -0.8657 H   0  0  0  0  0  0  0  0  0  0  0  0
    2.4220    2.4027    1.1042 H   0  0  0  0  0  0  0  0  0  0  0  0
   -3.5491    4.0963   -0.3712 H   0  0  0  0  0  0  0  0  0  0  0  0
   -5.0088    1.4506    0.9152 H   0  0  0  0  0  0  0  0  0  0  0  0
   -4.2852    1.9595   -0.5914 H   0  0  0  0  0  0  0  0  0  0  0  0
   -3.2256    0.1005    1.4568 H   0  0  0  0  0  0  0  0  0  0  0  0
  1  2  1  0
  2  3  1  0
  3  4  2  3
  4  5  1  0
  5  6  2  0
  6  7  1  0
  7  8  1  0
  8  9  2  0
  9 10  1  0
 10 11  1  0
  7 12  1  0
 12 13  2  0
 13 14  1  0
 14 15  2  0
 15 16  1  0
 16 17  2  0
 17 18  1  0
 18 19  2  3
 19 20  1  0
 20 21  2  3
 21 22  1  0
 22 23  2  3
 23 24  1  0
 24 25  1  0
 22 26  1  0
 26 27  1  0
 27 28  1  0
 28 29  1  0
  9  4  1  0
 17 12  1  0
 29 18  1  0
 25  5  1  0
  1 30  1  0
  1 31  1  0
  1 32  1  0
  3 33  1  0
  6 34  1  0
  7 35  1  0
  8 36  1  0
 11 37  1  0
 11 38  1  0
 11 39  1  0
 13 40  1  0
 14 41  1  0
 15 42  1  0
 16 43  1  0
 19 44  1  0
 20 45  1  0
 21 46  1  0
 24 47  1  0
 24 48  1  0
 25 49  1  0
 26 50  1  0
 28 51  1  0
 28 52  1  0
 29 53  1  0
M  END
>  <candidate_id>  (77) 
CAND_b8508fb54f

>  <source_generator>  (77) 
selfies

>  <parent_mol_id>  (77) 
JAK2_6c55e74feb

>  <canonical_smiles>  (77) 
COC=C1C2=CC(C=C1OC)c1ccccc1C1=CC=CC(=NCN2)NOCN1

>  <inchikey>  (77) 
MGFVZCBOFHJARP-UHFFFAOYSA-N

>  <valid_rdkit>  (77) 
True

>  <unique_flag>  (77) 
True

>  <novel_flag>  (77) 
True

>  <mw>  (77) 
392.459

>  <logp>  (77) 
2.6665

>  <tpsa>  (77) 
76.14

>  <hbd>  (77) 
3

>  <hba>  (77) 
7

>  <rotatable_bonds>  (77) 
2

>  <qed>  (77) 
0.6722

>  <sa_score>  (77) 
3.936

>  <murcko_scaffold>  (77) 
C=C1C=CC2C=C1NCN=C1C=CC=C(NCON1)c1ccccc12

>  <max_ring_size>  (77) 
13

>  <has_macrocycle_12_20>  (77) 
True

>  <has_constrained_ring_8_11>  (77) 
False

>  <passes_basic_filters>  (77) 
True

>  <generation_notes>  (77) 
selfies_token_mutation

>  <best_score>  (77) 
nan

>  <qed_admet>  (77) 
0.6722

>  <sa_score_admet>  (77) 
3.936

>  <mw_admet>  (77) 
392.459

>  <logp_admet>  (77) 
2.6665

>  <tpsa_admet>  (77) 
76.14

>  <hbd_admet>  (77) 
3

>  <hba_admet>  (77) 
7

>  <rotatable_bonds_admet>  (77) 
2

>  <lipinski_violations>  (77) 
0

>  <veber_pass>  (77) 
True

>  <admet_score>  (77) 
0.85249

>  <synthesis_score>  (77) 
0.673778

>  <safety_proxy_score>  (77) 
1.0

>  <main_risk>  (77) 
no_major_descriptor_risk

>  <pose_score>  (77) 
0.5

>  <pose_decision>  (77) 
nan

>  <contacts_within_4A>  (77) 
nan

>  <hard_clashes_lt_1_8A>  (77) 
nan

>  <smiles>  (77) 
COC=C1C2=CC(C=C1OC)c1ccccc1C1=CC=CC(=NCN2)NOCN1

>  <docking_score>  (77) 
nan

>  <diversity_cluster>  (77) 
scaffold_2434983e

>  <docking_score_scaled>  (77) 
0.0

>  <novelty_score>  (77) 
1.0

>  <final_weighted_score>  (77) 
0.496565

>  <rank>  (77) 
1274

>  <decision>  (77) 
await_docking

>  <diverse_rank>  (77) 
851

>  <selection_tier>  (77) 
await_docking

$$$$
CAND_daf82c369e
     RDKit          3D

 48 50  0  0  0  0  0  0  0  0999 V2000
   -2.4595   -3.5344   -0.0728 C   0  0  0  0  0  0  0  0  0  0  0  0
   -2.2354   -2.2274   -0.8159 C   0  0  0  0  0  0  0  0  0  0  0  0
   -3.4974   -1.3833   -0.8211 C   0  0  0  0  0  0  0  0  0  0  0  0
   -3.8917   -0.7649   -1.8901 N   0  0  0  0  0  0  0  0  0  0  0  0
   -4.9945    0.0200   -1.6868 C   0  0  0  0  0  0  0  0  0  0  0  0
   -5.0617    1.2446   -1.1359 C   0  0  0  0  0  0  0  0  0  0  0  0
   -6.3144    1.7729   -1.0856 F   0  0  0  0  0  0  0  0  0  0  0  0
   -3.9817    2.1387   -0.5735 C   0  0  0  0  0  0  0  0  0  0  0  0
   -2.6541    1.5308   -0.4617 N   0  0  0  0  0  0  0  0  0  0  0  0
   -1.6632    2.3344   -0.2741 C   0  0  0  0  0  0  0  0  0  0  0  0
   -1.8598    3.6973   -0.2100 N   0  0  0  0  0  0  0  0  0  0  0  0
   -0.9705    4.4484   -0.7716 C   0  0  0  0  0  0  0  0  0  0  0  0
   -1.2971    6.1429   -0.7541 Cl  0  0  0  0  0  0  0  0  0  0  0  0
    0.2686    3.9624   -1.4240 C   0  0  0  0  0  0  0  0  0  0  0  0
    0.6351    2.7113   -1.1228 C   0  0  0  0  0  0  0  0  0  0  0  0
   -0.2095    1.9110   -0.2418 C   0  0  0  0  0  0  0  0  0  0  0  0
    0.2334    0.8769    0.5278 C   0  0  0  0  0  0  0  0  0  0  0  0
    1.5716    0.4979    0.5138 N   0  0  0  0  0  0  0  0  0  0  0  0
    2.2176   -0.4630    1.2577 C   0  0  0  0  0  0  0  0  0  0  0  0
    3.5305   -0.7644    1.1799 C   0  0  0  0  0  0  0  0  0  0  0  0
    4.2805   -0.0526    0.2674 N   0  0  0  0  0  0  0  0  0  0  0  0
    5.4776   -0.5017    0.0421 C   0  0  0  0  0  0  0  0  0  0  0  0
    6.0865   -1.7304    0.6627 C   0  0  0  0  0  0  0  0  0  0  0  0
    5.5003   -1.9463    2.0425 C   0  0  0  0  0  0  0  0  0  0  0  0
    4.0796   -1.7334    1.9828 N   0  0  0  0  0  0  0  0  0  0  0  0
   -0.6442    0.2634    1.3977 N   0  0  0  0  0  0  0  0  0  0  0  0
   -1.2458   -0.7985    0.9765 C   0  0  0  0  0  0  0  0  0  0  0  0
   -1.1553   -1.4564   -0.2189 N   0  0  0  0  0  0  0  0  0  0  0  0
   -2.7789   -3.3691    0.9619 H   0  0  0  0  0  0  0  0  0  0  0  0
   -3.2407   -4.1262   -0.5623 H   0  0  0  0  0  0  0  0  0  0  0  0
   -1.5420   -4.1319   -0.0477 H   0  0  0  0  0  0  0  0  0  0  0  0
   -1.9651   -2.4489   -1.8549 H   0  0  0  0  0  0  0  0  0  0  0  0
   -4.0265   -1.2830    0.1467 H   0  0  0  0  0  0  0  0  0  0  0  0
   -5.9256   -0.4080   -2.0548 H   0  0  0  0  0  0  0  0  0  0  0  0
   -3.9613    3.0233   -1.2227 H   0  0  0  0  0  0  0  0  0  0  0  0
   -4.3089    2.4576    0.4238 H   0  0  0  0  0  0  0  0  0  0  0  0
    0.8458    4.6299   -2.0475 H   0  0  0  0  0  0  0  0  0  0  0  0
    1.5564    2.3036   -1.5202 H   0  0  0  0  0  0  0  0  0  0  0  0
    2.2188    1.0047   -0.0795 H   0  0  0  0  0  0  0  0  0  0  0  0
    1.5689   -0.9833    1.9551 H   0  0  0  0  0  0  0  0  0  0  0  0
    6.0889    0.0206   -0.7124 H   0  0  0  0  0  0  0  0  0  0  0  0
    5.8756   -2.5756   -0.0020 H   0  0  0  0  0  0  0  0  0  0  0  0
    7.1724   -1.6069    0.7165 H   0  0  0  0  0  0  0  0  0  0  0  0
    5.9392   -1.2378    2.7548 H   0  0  0  0  0  0  0  0  0  0  0  0
    5.7215   -2.9564    2.4017 H   0  0  0  0  0  0  0  0  0  0  0  0
    3.4775   -2.1682    2.6721 H   0  0  0  0  0  0  0  0  0  0  0  0
   -1.9782   -1.2582    1.6613 H   0  0  0  0  0  0  0  0  0  0  0  0
   -0.4836   -1.0825   -0.8800 H   0  0  0  0  0  0  0  0  0  0  0  0
  1  2  1  0
  2  3  1  0
  3  4  2  3
  4  5  1  0
  5  6  2  3
  6  7  1  0
  6  8  1  0
  8  9  1  0
  9 10  2  3
 10 11  1  0
 11 12  2  0
 12 13  1  0
 12 14  1  0
 14 15  2  0
 15 16  1  0
 16 17  2  3
 17 18  1  0
 18 19  1  0
 19 20  2  3
 20 21  1  0
 21 22  2  0
 22 23  1  0
 23 24  1  0
 24 25  1  0
 17 26  1  0
 26 27  2  3
 27 28  1  0
 28  2  1  0
 16 10  1  0
 25 20  1  0
  1 29  1  0
  1 30  1  0
  1 31  1  0
  2 32  1  0
  3 33  1  0
  5 34  1  0
  8 35  1  0
  8 36  1  0
 14 37  1  0
 15 38  1  0
 18 39  1  0
 19 40  1  0
 22 41  1  0
 23 42  1  0
 23 43  1  0
 24 44  1  0
 24 45  1  0
 25 46  1  0
 27 47  1  0
 28 48  1  0
M  END
>  <candidate_id>  (78) 
CAND_daf82c369e

>  <source_generator>  (78) 
selfies

>  <parent_mol_id>  (78) 
JAK2_3bd770708d

>  <canonical_smiles>  (78) 
CC1C=NC=C(F)CN=c2nc(Cl)ccc2=C(NC=C2N=CCCN2)N=CN1

>  <inchikey>  (78) 
LAHCLFYBEMGRGL-UHFFFAOYSA-N

>  <valid_rdkit>  (78) 
True

>  <unique_flag>  (78) 
True

>  <novel_flag>  (78) 
True

>  <mw>  (78) 
402.865

>  <logp>  (78) 
0.7746

>  <tpsa>  (78) 
98.42

>  <hbd>  (78) 
3

>  <hba>  (78) 
8

>  <rotatable_bonds>  (78) 
2

>  <qed>  (78) 
0.6364

>  <sa_score>  (78) 
3.744

>  <murcko_scaffold>  (78) 
C1=CN=CCNC=NC(NC=C2N=CCCN2)=c2cccnc2=NC1

>  <max_ring_size>  (78) 
13

>  <has_macrocycle_12_20>  (78) 
True

>  <has_constrained_ring_8_11>  (78) 
False

>  <passes_basic_filters>  (78) 
True

>  <generation_notes>  (78) 
selfies_token_mutation

>  <best_score>  (78) 
nan

>  <qed_admet>  (78) 
0.6364

>  <sa_score_admet>  (78) 
3.744

>  <mw_admet>  (78) 
402.865

>  <logp_admet>  (78) 
0.7746

>  <tpsa_admet>  (78) 
98.42

>  <hbd_admet>  (78) 
3

>  <hba_admet>  (78) 
8

>  <rotatable_bonds_admet>  (78) 
2

>  <lipinski_violations>  (78) 
0

>  <veber_pass>  (78) 
True

>  <admet_score>  (78) 
0.83638

>  <synthesis_score>  (78) 
0.695111

>  <safety_proxy_score>  (78) 
1.0

>  <main_risk>  (78) 
no_major_descriptor_risk

>  <pose_score>  (78) 
0.5

>  <pose_decision>  (78) 
nan

>  <contacts_within_4A>  (78) 
nan

>  <hard_clashes_lt_1_8A>  (78) 
nan

>  <smiles>  (78) 
CC1C=NC=C(F)CN=c2nc(Cl)ccc2=C(NC=C2N=CCCN2)N=CN1

>  <docking_score>  (78) 
nan

>  <diversity_cluster>  (78) 
scaffold_40e60915

>  <docking_score_scaled>  (78) 
0.0

>  <novelty_score>  (78) 
1.0

>  <final_weighted_score>  (78) 
0.496543

>  <rank>  (78) 
1277

>  <decision>  (78) 
await_docking

>  <diverse_rank>  (78) 
853

>  <selection_tier>  (78) 
await_docking

$$$$
CAND_56ba271daf
     RDKit          3D

 48 51  0  0  0  0  0  0  0  0999 V2000
   -3.6605   -1.5679   -1.2446 C   0  0  0  0  0  0  0  0  0  0  0  0
   -2.3436   -1.2380   -0.5204 C   0  0  0  0  0  0  0  0  0  0  0  0
   -1.1721   -1.4877   -1.5105 C   0  0  0  0  0  0  0  0  0  0  0  0
    0.0092   -1.9764   -0.6958 C   0  0  0  0  0  0  0  0  0  0  0  0
   -0.1805   -3.0453    0.0283 N   0  0  0  0  0  0  0  0  0  0  0  0
    0.5089   -3.0828    1.2209 C   0  0  0  0  0  0  0  0  0  0  0  0
    0.9101   -4.0708    1.8121 O   0  0  0  0  0  0  0  0  0  0  0  0
    0.6400   -1.7071    1.7476 C   0  0  0  0  0  0  0  0  0  0  0  0
   -0.4859   -1.1210    2.2290 C   0  0  0  0  0  0  0  0  0  0  0  0
   -0.6152    0.2368    2.0888 N   0  0  0  0  0  0  0  0  0  0  0  0
   -1.1359    0.7385    0.9809 C   0  0  0  0  0  0  0  0  0  0  0  0
   -2.3796    0.1440    0.2202 C   0  0  1  0  0  0  0  0  0  0  0  0
   -3.0895    1.2427   -0.5903 C   0  0  0  0  0  0  0  0  0  0  0  0
   -4.4239    0.9690   -0.6608 F   0  0  0  0  0  0  0  0  0  0  0  0
   -0.5447    1.9331    0.5229 N   0  0  0  0  0  0  0  0  0  0  0  0
   -0.1659    2.9489    1.5128 C   0  0  0  0  0  0  0  0  0  0  0  0
   -0.4424    2.2912   -0.7984 N   0  0  0  0  0  0  0  0  0  0  0  0
    0.7435    2.3656   -1.3417 C   0  0  0  0  0  0  0  0  0  0  0  0
    2.0980    2.0381   -0.7385 C   0  0  0  0  0  0  0  0  0  0  0  0
    2.7103    0.7502   -1.3427 C   0  0  0  0  0  0  0  0  0  0  0  0
    3.9426    0.2814   -0.5783 C   0  0  0  0  0  0  0  0  0  0  0  0
    4.0225   -0.6383    0.3999 C   0  0  0  0  0  0  0  0  0  0  0  0
    2.9994   -1.3143    1.0224 N   0  0  0  0  0  0  0  0  0  0  0  0
    1.6047   -0.9307    0.9160 C   0  0  0  0  0  0  0  0  0  0  0  0
    1.1684   -1.0475   -0.5197 C   0  0  0  0  0  0  0  0  0  0  0  0
    1.6708   -0.3301   -1.5362 C   0  0  0  0  0  0  0  0  0  0  0  0
   -4.5182   -1.4445   -0.5753 H   0  0  0  0  0  0  0  0  0  0  0  0
   -3.8063   -0.9394   -2.1289 H   0  0  0  0  0  0  0  0  0  0  0  0
   -3.6631   -2.6116   -1.5791 H   0  0  0  0  0  0  0  0  0  0  0  0
   -2.2982   -1.9863    0.2801 H   0  0  0  0  0  0  0  0  0  0  0  0
   -0.9541   -0.5809   -2.0790 H   0  0  0  0  0  0  0  0  0  0  0  0
   -1.4149   -2.2828   -2.2255 H   0  0  0  0  0  0  0  0  0  0  0  0
   -1.3342   -1.6905    2.6006 H   0  0  0  0  0  0  0  0  0  0  0  0
   -3.0765   -0.0420    1.0555 H   0  0  0  0  0  0  0  0  0  0  0  0
   -3.0167    2.2267   -0.1193 H   0  0  0  0  0  0  0  0  0  0  0  0
   -2.7116    1.3062   -1.6147 H   0  0  0  0  0  0  0  0  0  0  0  0
   -1.0280    3.1999    2.1399 H   0  0  0  0  0  0  0  0  0  0  0  0
    0.6422    2.5863    2.1560 H   0  0  0  0  0  0  0  0  0  0  0  0
    0.1733    3.8729    1.0318 H   0  0  0  0  0  0  0  0  0  0  0  0
    0.7663    2.6740   -2.4021 H   0  0  0  0  0  0  0  0  0  0  0  0
    2.0392    1.9805    0.3484 H   0  0  0  0  0  0  0  0  0  0  0  0
    2.7590    2.8845   -0.9639 H   0  0  0  0  0  0  0  0  0  0  0  0
    3.0605    0.9967   -2.3558 H   0  0  0  0  0  0  0  0  0  0  0  0
    4.8778    0.7354   -0.9041 H   0  0  0  0  0  0  0  0  0  0  0  0
    4.9983   -0.9100    0.8014 H   0  0  0  0  0  0  0  0  0  0  0  0
    3.2493   -2.0050    1.7261 H   0  0  0  0  0  0  0  0  0  0  0  0
    1.5728    0.1133    1.2348 H   0  0  0  0  0  0  0  0  0  0  0  0
    1.2944   -0.4651   -2.5469 H   0  0  0  0  0  0  0  0  0  0  0  0
  1  2  1  0
  2  3  1  0
  3  4  1  0
  4  5  2  0
  5  6  1  0
  6  7  2  0
  6  8  1  0
  8  9  2  3
  9 10  1  0
 10 11  2  3
 11 12  1  0
 12 13  1  0
 13 14  1  0
 11 15  1  0
 15 16  1  0
 15 17  1  0
 17 18  2  3
 18 19  1  0
 19 20  1  0
 20 21  1  0
 21 22  2  0
 22 23  1  0
 23 24  1  0
 24 25  1  0
 25 26  2  0
 12  2  1  0
 26 20  1  0
 25  4  1  0
 24  8  1  0
  1 27  1  0
  1 28  1  0
  1 29  1  0
  2 30  1  0
  3 31  1  0
  3 32  1  0
  9 33  1  0
 12 34  1  1
 13 35  1  0
 13 36  1  0
 16 37  1  0
 16 38  1  0
 16 39  1  0
 18 40  1  0
 19 41  1  0
 19 42  1  0
 20 43  1  0
 21 44  1  0
 22 45  1  0
 23 46  1  0
 24 47  1  0
 26 48  1  0
M  END
>  <candidate_id>  (79) 
CAND_56ba271daf

>  <source_generator>  (79) 
selfies

>  <parent_mol_id>  (79) 
JAK2_9e2ca53048

>  <canonical_smiles>  (79) 
CC1CC2=NC(=O)C3=CN=C([C@H]1CF)N(C)N=CCC1C=CNC3C2=C1

>  <inchikey>  (79) 
YHARGDOOUXHZIB-KRSQZZLTSA-N

>  <valid_rdkit>  (79) 
True

>  <unique_flag>  (79) 
True

>  <novel_flag>  (79) 
True

>  <mw>  (79) 
355.417

>  <logp>  (79) 
2.2249

>  <tpsa>  (79) 
69.42

>  <hbd>  (79) 
1

>  <hba>  (79) 
5

>  <rotatable_bonds>  (79) 
1

>  <qed>  (79) 
0.7841

>  <sa_score>  (79) 
4.555

>  <murcko_scaffold>  (79) 
O=C1N=C2CCCC3=NC=C1C1NC=CC(C=C21)CC=NN3

>  <max_ring_size>  (79) 
12

>  <has_macrocycle_12_20>  (79) 
True

>  <has_constrained_ring_8_11>  (79) 
False

>  <passes_basic_filters>  (79) 
True

>  <generation_notes>  (79) 
selfies_token_mutation

>  <best_score>  (79) 
nan

>  <qed_admet>  (79) 
0.7841

>  <sa_score_admet>  (79) 
4.555

>  <mw_admet>  (79) 
355.417

>  <logp_admet>  (79) 
2.2249

>  <tpsa_admet>  (79) 
69.42

>  <hbd_admet>  (79) 
1

>  <hba_admet>  (79) 
5

>  <rotatable_bonds_admet>  (79) 
1

>  <lipinski_violations>  (79) 
0

>  <veber_pass>  (79) 
True

>  <admet_score>  (79) 
0.902845

>  <synthesis_score>  (79) 
0.605

>  <safety_proxy_score>  (79) 
1.0

>  <main_risk>  (79) 
no_major_descriptor_risk

>  <pose_score>  (79) 
0.5

>  <pose_decision>  (79) 
nan

>  <contacts_within_4A>  (79) 
nan

>  <hard_clashes_lt_1_8A>  (79) 
nan

>  <smiles>  (79) 
CC1CC2=NC(=O)C3=CN=C([C@H]1CF)N(C)N=CCC1C=CNC3C2=C1

>  <docking_score>  (79) 
nan

>  <diversity_cluster>  (79) 
scaffold_a9cf6409

>  <docking_score_scaled>  (79) 
0.0

>  <novelty_score>  (79) 
1.0

>  <final_weighted_score>  (79) 
0.496319

>  <rank>  (79) 
1285

>  <decision>  (79) 
await_docking

>  <diverse_rank>  (79) 
860

>  <selection_tier>  (79) 
await_docking

$$$$
CAND_ffefd7080a
     RDKit          3D

 55 58  0  0  0  0  0  0  0  0999 V2000
   -4.1912   -0.7267    1.7116 O   0  0  0  0  0  0  0  0  0  0  0  0
   -3.9862   -0.8180    0.4933 C   0  0  0  0  0  0  0  0  0  0  0  0
   -4.0973    0.4405   -0.3575 C   0  0  0  0  0  0  0  0  0  0  0  0
   -2.9153    0.7054   -1.2458 C   0  0  0  0  0  0  0  0  0  0  0  0
   -2.5843   -0.1513   -2.2259 C   0  0  0  0  0  0  0  0  0  0  0  0
   -3.2264   -1.4199   -2.4608 C   0  0  0  0  0  0  0  0  0  0  0  0
   -3.7011   -2.2626   -1.5315 C   0  0  0  0  0  0  0  0  0  0  0  0
   -3.8242   -2.0458   -0.1675 N   0  0  0  0  0  0  0  0  0  0  0  0
   -3.9440   -3.2240    0.5477 C   0  0  0  0  0  0  0  0  0  0  0  0
   -2.9780   -3.7698    1.3056 C   0  0  0  0  0  0  0  0  0  0  0  0
   -1.5564   -3.3057    1.4913 C   0  0  0  0  0  0  0  0  0  0  0  0
   -1.4284   -1.9605    2.1322 C   0  0  0  0  0  0  0  0  0  0  0  0
   -0.5694   -0.9872    1.8007 C   0  0  0  0  0  0  0  0  0  0  0  0
    0.4400   -1.0155    0.8753 N   0  0  0  0  0  0  0  0  0  0  0  0
    1.3963   -0.0375    0.5645 C   0  0  0  0  0  0  0  0  0  0  0  0
    2.5911   -0.4556    0.0763 C   0  0  0  0  0  0  0  0  0  0  0  0
    3.8930    0.2794   -0.2192 C   0  0  0  0  0  0  0  0  0  0  0  0
    4.1958    0.2623   -1.7347 C   0  0  0  0  0  0  0  0  0  0  0  0
    3.5535    1.3532   -2.4042 O   0  0  0  0  0  0  0  0  0  0  0  0
    4.0975    2.6111   -1.9926 C   0  0  0  0  0  0  0  0  0  0  0  0
    4.1547    2.7390   -0.5016 C   0  0  0  0  0  0  0  0  0  0  0  0
    4.0327    1.6863    0.3287 C   0  0  0  0  0  0  0  0  0  0  0  0
    4.0029    1.8828    1.7664 C   0  0  0  0  0  0  0  0  0  0  0  0
    2.8771    1.9682    2.4899 C   0  0  0  0  0  0  0  0  0  0  0  0
    1.5724    1.8517    2.0827 N   0  0  0  0  0  0  0  0  0  0  0  0
    1.0870    1.4732    0.7758 C   0  0  0  0  0  0  0  0  0  0  0  0
   -0.3447    1.8052    0.6180 N   0  0  0  0  0  0  0  0  0  0  0  0
   -0.7340    1.6875   -0.6070 C   0  0  0  0  0  0  0  0  0  0  0  0
   -2.1545    1.9891   -1.0215 C   0  0  0  0  0  0  0  0  0  0  0  0
   -5.0188    0.3810   -0.9509 H   0  0  0  0  0  0  0  0  0  0  0  0
   -4.2476    1.2806    0.3321 H   0  0  0  0  0  0  0  0  0  0  0  0
   -1.7592    0.0767   -2.8986 H   0  0  0  0  0  0  0  0  0  0  0  0
   -3.1741   -1.7727   -3.4903 H   0  0  0  0  0  0  0  0  0  0  0  0
   -3.9684   -3.2632   -1.8704 H   0  0  0  0  0  0  0  0  0  0  0  0
   -4.9068   -3.7211    0.4474 H   0  0  0  0  0  0  0  0  0  0  0  0
   -3.2175   -4.7057    1.8086 H   0  0  0  0  0  0  0  0  0  0  0  0
   -1.0539   -4.0309    2.1431 H   0  0  0  0  0  0  0  0  0  0  0  0
   -1.0428   -3.3538    0.5250 H   0  0  0  0  0  0  0  0  0  0  0  0
   -2.1282   -1.7475    2.9402 H   0  0  0  0  0  0  0  0  0  0  0  0
   -0.6318   -0.0509    2.3513 H   0  0  0  0  0  0  0  0  0  0  0  0
    0.6246   -1.9327    0.4874 H   0  0  0  0  0  0  0  0  0  0  0  0
    2.7103   -1.5299   -0.0647 H   0  0  0  0  0  0  0  0  0  0  0  0
    4.6773   -0.3283    0.2576 H   0  0  0  0  0  0  0  0  0  0  0  0
    3.8451   -0.6655   -2.2001 H   0  0  0  0  0  0  0  0  0  0  0  0
    5.2769    0.3193   -1.9173 H   0  0  0  0  0  0  0  0  0  0  0  0
    3.4476    3.3910   -2.4031 H   0  0  0  0  0  0  0  0  0  0  0  0
    5.0938    2.7382   -2.4288 H   0  0  0  0  0  0  0  0  0  0  0  0
    4.2583    3.7439   -0.1004 H   0  0  0  0  0  0  0  0  0  0  0  0
    4.9653    1.9657    2.2653 H   0  0  0  0  0  0  0  0  0  0  0  0
    2.9521    2.1320    3.5626 H   0  0  0  0  0  0  0  0  0  0  0  0
    0.8413    1.9052    2.7800 H   0  0  0  0  0  0  0  0  0  0  0  0
    1.6021    2.0716    0.0193 H   0  0  0  0  0  0  0  0  0  0  0  0
   -0.0550    1.3537   -1.4148 H   0  0  0  0  0  0  0  0  0  0  0  0
   -2.1246    2.5767   -1.9457 H   0  0  0  0  0  0  0  0  0  0  0  0
   -2.6252    2.6117   -0.2540 H   0  0  0  0  0  0  0  0  0  0  0  0
  1  2  2  0
  2  3  1  0
  3  4  1  0
  4  5  2  0
  5  6  1  0
  6  7  2  0
  7  8  1  0
  8  9  1  0
  9 10  2  3
 10 11  1  0
 11 12  1  0
 12 13  2  3
 13 14  1  0
 14 15  1  0
 15 16  2  3
 16 17  1  0
 17 18  1  0
 18 19  1  0
 19 20  1  0
 20 21  1  0
 21 22  2  0
 22 23  1  0
 23 24  2  3
 24 25  1  0
 25 26  1  0
 26 27  1  0
 27 28  2  3
 28 29  1  0
  8  2  1  0
 26 15  1  0
 29  4  1  0
 22 17  1  0
  3 30  1  0
  3 31  1  0
  5 32  1  0
  6 33  1  0
  7 34  1  0
  9 35  1  0
 10 36  1  0
 11 37  1  0
 11 38  1  0
 12 39  1  0
 13 40  1  0
 14 41  1  0
 16 42  1  0
 17 43  1  0
 18 44  1  0
 18 45  1  0
 20 46  1  0
 20 47  1  0
 21 48  1  0
 23 49  1  0
 24 50  1  0
 25 51  1  0
 26 52  1  0
 28 53  1  0
 29 54  1  0
 29 55  1  0
M  END
>  <candidate_id>  (80) 
CAND_ffefd7080a

>  <source_generator>  (80) 
selfies

>  <parent_mol_id>  (80) 
JAK2_bb041e75cb

>  <canonical_smiles>  (80) 
O=C1CC2=CC=CN1C=CCC=CNC1=CC3COCC=C3C=CNC1N=CC2

>  <inchikey>  (80) 
GBYCDYSKPVVGRQ-UHFFFAOYSA-N

>  <valid_rdkit>  (80) 
True

>  <unique_flag>  (80) 
True

>  <novel_flag>  (80) 
True

>  <mw>  (80) 
390.487

>  <logp>  (80) 
3.0401

>  <tpsa>  (80) 
65.96

>  <hbd>  (80) 
2

>  <hba>  (80) 
5

>  <rotatable_bonds>  (80) 
0

>  <qed>  (80) 
0.6673

>  <sa_score>  (80) 
3.925

>  <murcko_scaffold>  (80) 
O=C1CC2=CC=CN1C=CCC=CNC1=CC3COCC=C3C=CNC1N=CC2

>  <max_ring_size>  (80) 
15

>  <has_macrocycle_12_20>  (80) 
True

>  <has_constrained_ring_8_11>  (80) 
False

>  <passes_basic_filters>  (80) 
True

>  <generation_notes>  (80) 
selfies_token_mutation

>  <best_score>  (80) 
nan

>  <qed_admet>  (80) 
0.6673

>  <sa_score_admet>  (80) 
3.925

>  <mw_admet>  (80) 
390.487

>  <logp_admet>  (80) 
3.0401

>  <tpsa_admet>  (80) 
65.96

>  <hbd_admet>  (80) 
2

>  <hba_admet>  (80) 
5

>  <rotatable_bonds_admet>  (80) 
0

>  <lipinski_violations>  (80) 
0

>  <veber_pass>  (80) 
True

>  <admet_score>  (80) 
0.850285

>  <synthesis_score>  (80) 
0.675

>  <safety_proxy_score>  (80) 
1.0

>  <main_risk>  (80) 
no_major_descriptor_risk

>  <pose_score>  (80) 
0.5

>  <pose_decision>  (80) 
nan

>  <contacts_within_4A>  (80) 
nan

>  <hard_clashes_lt_1_8A>  (80) 
nan

>  <smiles>  (80) 
O=C1CC2=CC=CN1C=CCC=CNC1=CC3COCC=C3C=CNC1N=CC2

>  <docking_score>  (80) 
nan

>  <diversity_cluster>  (80) 
scaffold_ffefd708

>  <docking_score_scaled>  (80) 
0.0

>  <novelty_score>  (80) 
1.0

>  <final_weighted_score>  (80) 
0.496307

>  <rank>  (80) 
1288

>  <decision>  (80) 
await_docking

>  <diverse_rank>  (80) 
863

>  <selection_tier>  (80) 
await_docking

$$$$
CAND_e5cba072ee
     RDKit          3D

 57 60  0  0  0  0  0  0  0  0999 V2000
    2.4704    0.0678   -2.5509 C   0  0  0  0  0  0  0  0  0  0  0  0
    2.0895    0.0312   -1.1468 N   0  0  0  0  0  0  0  0  0  0  0  0
    2.8707   -0.7920   -0.3382 C   0  0  0  0  0  0  0  0  0  0  0  0
    3.5243   -1.8358   -0.9224 N   0  0  0  0  0  0  0  0  0  0  0  0
    4.2573   -2.6727   -0.1643 C   0  0  0  0  0  0  0  0  0  0  0  0
    4.4641   -2.6223    1.1586 N   0  0  0  0  0  0  0  0  0  0  0  0
    3.8482   -1.5647    1.7023 C   0  0  0  0  0  0  0  0  0  0  0  0
    3.9125   -1.2425    3.0300 N   0  0  0  0  0  0  0  0  0  0  0  0
    3.2114   -0.0893    3.2616 C   0  0  0  0  0  0  0  0  0  0  0  0
    2.6854    0.3261    2.0561 C   0  0  0  0  0  0  0  0  0  0  0  0
    3.0620   -0.6214    1.0543 C   0  0  0  0  0  0  0  0  0  0  0  0
    0.7602    0.4525   -0.6870 C   0  0  1  0  0  0  0  0  0  0  0  0
    0.5603    1.9842   -0.8843 C   0  0  0  0  0  0  0  0  0  0  0  0
   -0.8752    2.2795   -0.9536 N   0  0  0  0  0  0  0  0  0  0  0  0
   -1.5130    1.7745   -2.1816 C   0  0  0  0  0  0  0  0  0  0  0  0
   -0.9672    0.3848   -2.5739 C   0  0  0  0  0  0  0  0  0  0  0  0
   -0.4355   -0.3339   -1.3218 C   0  0  1  0  0  0  0  0  0  0  0  0
   -0.2761   -1.8522   -1.4867 C   0  0  0  0  0  0  0  0  0  0  0  0
   -0.3877   -2.6395   -0.1652 C   0  0  0  0  0  0  0  0  0  0  0  0
   -1.7645   -2.5041    0.5173 C   0  0  0  0  0  0  0  0  0  0  0  0
   -1.7443   -1.5312    1.7013 C   0  0  0  0  0  0  0  0  0  0  0  0
   -3.4278   -0.9267    2.0942 S   0  0  0  0  0  0  0  0  0  0  0  0
   -3.1618    0.8785    1.9677 C   0  0  0  0  0  0  0  0  0  0  0  0
   -3.5564    1.4133    0.5839 C   0  0  0  0  0  0  0  0  0  0  0  0
   -3.0021    2.8303    0.3444 C   0  0  0  0  0  0  0  0  0  0  0  0
   -3.6689    3.5315   -0.7575 C   0  0  0  0  0  0  0  0  0  0  0  0
   -4.2080    4.0681   -1.6344 N   0  0  0  0  0  0  0  0  0  0  0  0
   -1.4852    2.8089    0.1752 C   0  0  0  0  0  0  0  0  0  0  0  0
   -0.8017    3.1777    1.1396 O   0  0  0  0  0  0  0  0  0  0  0  0
    2.0063    0.9068   -3.0753 H   0  0  0  0  0  0  0  0  0  0  0  0
    2.1845   -0.8505   -3.0735 H   0  0  0  0  0  0  0  0  0  0  0  0
    3.5528    0.2074   -2.6616 H   0  0  0  0  0  0  0  0  0  0  0  0
    4.7384   -3.4903   -0.6921 H   0  0  0  0  0  0  0  0  0  0  0  0
    4.4282   -1.7796    3.7119 H   0  0  0  0  0  0  0  0  0  0  0  0
    3.1591    0.3420    4.2526 H   0  0  0  0  0  0  0  0  0  0  0  0
    2.1010    1.2257    1.9131 H   0  0  0  0  0  0  0  0  0  0  0  0
    0.6603    0.2734    0.3875 H   0  0  0  0  0  0  0  0  0  0  0  0
    1.0107    2.3533   -1.8117 H   0  0  0  0  0  0  0  0  0  0  0  0
    1.0540    2.5250   -0.0700 H   0  0  0  0  0  0  0  0  0  0  0  0
   -1.3132    2.4950   -2.9826 H   0  0  0  0  0  0  0  0  0  0  0  0
   -2.5934    1.7051   -2.0683 H   0  0  0  0  0  0  0  0  0  0  0  0
   -0.1805    0.4880   -3.3269 H   0  0  0  0  0  0  0  0  0  0  0  0
   -1.7723   -0.1870   -3.0503 H   0  0  0  0  0  0  0  0  0  0  0  0
   -1.2611   -0.2220   -0.6135 H   0  0  0  0  0  0  0  0  0  0  0  0
   -1.0603   -2.2254   -2.1583 H   0  0  0  0  0  0  0  0  0  0  0  0
    0.6688   -2.1032   -1.9751 H   0  0  0  0  0  0  0  0  0  0  0  0
    0.4184   -2.3623    0.5219 H   0  0  0  0  0  0  0  0  0  0  0  0
   -0.2348   -3.6984   -0.4095 H   0  0  0  0  0  0  0  0  0  0  0  0
   -2.0643   -3.4903    0.8951 H   0  0  0  0  0  0  0  0  0  0  0  0
   -2.5168   -2.2181   -0.2279 H   0  0  0  0  0  0  0  0  0  0  0  0
   -1.3545   -2.0424    2.5882 H   0  0  0  0  0  0  0  0  0  0  0  0
   -1.0836   -0.6840    1.5140 H   0  0  0  0  0  0  0  0  0  0  0  0
   -2.1255    1.1091    2.2277 H   0  0  0  0  0  0  0  0  0  0  0  0
   -3.7898    1.3573    2.7270 H   0  0  0  0  0  0  0  0  0  0  0  0
   -3.2161    0.7297   -0.1984 H   0  0  0  0  0  0  0  0  0  0  0  0
   -4.6527    1.4301    0.5163 H   0  0  0  0  0  0  0  0  0  0  0  0
   -3.2046    3.4249    1.2471 H   0  0  0  0  0  0  0  0  0  0  0  0
  1  2  1  0
  2  3  1  0
  3  4  1  0
  4  5  2  0
  5  6  1  0
  6  7  2  0
  7  8  1  0
  8  9  1  0
  9 10  2  0
 10 11  1  0
  2 12  1  0
 12 13  1  0
 13 14  1  0
 14 15  1  0
 15 16  1  0
 16 17  1  0
 17 18  1  0
 18 19  1  0
 19 20  1  0
 20 21  1  0
 21 22  1  0
 22 23  1  0
 23 24  1  0
 24 25  1  0
 25 26  1  0
 26 27  3  0
 25 28  1  0
 28 29  2  0
 11  3  2  0
 17 12  1  0
 11  7  1  0
 28 14  1  0
  1 30  1  0
  1 31  1  0
  1 32  1  0
  5 33  1  0
  8 34  1  0
  9 35  1  0
 10 36  1  0
 12 37  1  1
 13 38  1  0
 13 39  1  0
 15 40  1  0
 15 41  1  0
 16 42  1  0
 16 43  1  0
 17 44  1  1
 18 45  1  0
 18 46  1  0
 19 47  1  0
 19 48  1  0
 20 49  1  0
 20 50  1  0
 21 51  1  0
 21 52  1  0
 23 53  1  0
 23 54  1  0
 24 55  1  0
 24 56  1  0
 25 57  1  0
M  END
>  <candidate_id>  (81) 
CAND_e5cba072ee

>  <source_generator>  (81) 
macrocycle_linker

>  <parent_mol_id>  (81) 
JAK2_3f3d946705

>  <canonical_smiles>  (81) 
CN(c1ncnc2[nH]ccc12)[C@H]1CN2CC[C@H]1CCCCSCCC(C#N)C2=O

>  <inchikey>  (81) 
CYPVTJSSSJDECB-AGPBCMBSSA-N

>  <valid_rdkit>  (81) 
True

>  <unique_flag>  (81) 
True

>  <novel_flag>  (81) 
True

>  <mw>  (81) 
412.563

>  <logp>  (81) 
3.0582

>  <tpsa>  (81) 
88.91

>  <hbd>  (81) 
1

>  <hba>  (81) 
6

>  <rotatable_bonds>  (81) 
2

>  <qed>  (81) 
0.8155

>  <sa_score>  (81) 
4.748

>  <murcko_scaffold>  (81) 
O=C1CCCSCCCC[C@@H]2CCN1C[C@@H]2Nc1ncnc2[nH]ccc12

>  <max_ring_size>  (81) 
13

>  <has_macrocycle_12_20>  (81) 
True

>  <has_constrained_ring_8_11>  (81) 
False

>  <passes_basic_filters>  (81) 
True

>  <generation_notes>  (81) 
macrocycle_bridge_thioether_path6_ring12

>  <best_score>  (81) 
nan

>  <qed_admet>  (81) 
0.8155

>  <sa_score_admet>  (81) 
4.748

>  <mw_admet>  (81) 
412.563

>  <logp_admet>  (81) 
3.0582

>  <tpsa_admet>  (81) 
88.91

>  <hbd_admet>  (81) 
1

>  <hba_admet>  (81) 
6

>  <rotatable_bonds_admet>  (81) 
2

>  <lipinski_violations>  (81) 
0

>  <veber_pass>  (81) 
True

>  <admet_score>  (81) 
0.916975

>  <synthesis_score>  (81) 
0.583556

>  <safety_proxy_score>  (81) 
1.0

>  <main_risk>  (81) 
no_major_descriptor_risk

>  <pose_score>  (81) 
0.5

>  <pose_decision>  (81) 
nan

>  <contacts_within_4A>  (81) 
nan

>  <hard_clashes_lt_1_8A>  (81) 
nan

>  <smiles>  (81) 
CN(c1ncnc2[nH]ccc12)[C@H]1CN2CC[C@H]1CCCCSCCC(C#N)C2=O

>  <docking_score>  (81) 
nan

>  <diversity_cluster>  (81) 
scaffold_ee9e1427

>  <docking_score_scaled>  (81) 
0.0

>  <novelty_score>  (81) 
1.0

>  <final_weighted_score>  (81) 
0.495928

>  <rank>  (81) 
1318

>  <decision>  (81) 
await_docking

>  <diverse_rank>  (81) 
878

>  <selection_tier>  (81) 
await_docking

$$$$
CAND_2584beb1c0
     RDKit          3D

 36 37  0  0  0  0  0  0  0  0999 V2000
    3.8892    0.2698    2.9753 O   0  0  0  0  0  0  0  0  0  0  0  0
    3.9318    1.2268    2.2184 C   0  0  0  0  0  0  0  0  0  0  0  0
    3.1821    1.4903    1.0894 N   0  0  0  0  0  0  0  0  0  0  0  0
    2.2141    0.7076    0.4453 C   0  0  0  0  0  0  0  0  0  0  0  0
    2.0301   -0.5686    0.8499 C   0  0  0  0  0  0  0  0  0  0  0  0
    1.1993   -1.6092    0.3101 C   0  0  0  0  0  0  0  0  0  0  0  0
   -0.1295   -1.7976    0.4546 C   0  0  0  0  0  0  0  0  0  0  0  0
   -0.7442   -2.7409   -0.5785 C   0  0  0  0  0  0  0  0  0  0  0  0
   -0.8284   -2.1192   -2.0068 C   0  0  0  0  0  0  0  0  0  0  0  0
    0.1823   -1.0415   -2.2136 N   0  0  0  0  0  0  0  0  0  0  0  0
   -0.2519    0.0738   -1.7216 C   0  0  0  0  0  0  0  0  0  0  0  0
    0.5126    1.3444   -1.5014 C   0  0  0  0  0  0  0  0  0  0  0  0
    1.5240    1.4861   -0.6125 C   0  0  0  0  0  0  0  0  0  0  0  0
   -0.0818    2.4822   -2.0800 N   0  0  0  0  0  0  0  0  0  0  0  0
   -1.4271    2.7722   -1.5567 C   0  0  0  0  0  0  0  0  0  0  0  0
   -2.4322    2.6214   -0.9139 C   0  0  0  0  0  0  0  0  0  0  0  0
   -3.2965    1.9439   -0.1347 N   0  0  0  0  0  0  0  0  0  0  0  0
   -2.6657    1.1791    0.7063 C   0  0  0  0  0  0  0  0  0  0  0  0
   -3.1834   -0.0581    1.3321 C   0  0  0  0  0  0  0  0  0  0  0  0
   -4.8709   -0.2589    1.5276 Cl  0  0  0  0  0  0  0  0  0  0  0  0
   -2.3034   -1.0651    1.4801 C   0  0  0  0  0  0  0  0  0  0  0  0
   -0.9349   -1.0464    1.2963 N   0  0  0  0  0  0  0  0  0  0  0  0
    4.6326    2.0585    2.4101 H   0  0  0  0  0  0  0  0  0  0  0  0
    3.3777    2.3983    0.6869 H   0  0  0  0  0  0  0  0  0  0  0  0
    2.6631   -0.9893    1.6280 H   0  0  0  0  0  0  0  0  0  0  0  0
    1.7482   -2.2464   -0.3867 H   0  0  0  0  0  0  0  0  0  0  0  0
   -1.7357   -3.0935   -0.2741 H   0  0  0  0  0  0  0  0  0  0  0  0
   -0.1294   -3.6504   -0.6346 H   0  0  0  0  0  0  0  0  0  0  0  0
   -1.8472   -1.7562   -2.1987 H   0  0  0  0  0  0  0  0  0  0  0  0
   -0.6483   -2.9035   -2.7511 H   0  0  0  0  0  0  0  0  0  0  0  0
   -1.3072    0.1453   -1.4126 H   0  0  0  0  0  0  0  0  0  0  0  0
    1.8623    2.5245   -0.5852 H   0  0  0  0  0  0  0  0  0  0  0  0
    0.5369    3.2653   -2.2641 H   0  0  0  0  0  0  0  0  0  0  0  0
   -1.5814    1.3383    0.8671 H   0  0  0  0  0  0  0  0  0  0  0  0
   -2.6610   -2.0591    1.7431 H   0  0  0  0  0  0  0  0  0  0  0  0
   -0.4264   -0.3241    1.8062 H   0  0  0  0  0  0  0  0  0  0  0  0
  1  2  2  0
  2  3  1  0
  3  4  1  0
  4  5  2  3
  5  6  1  0
  6  7  2  3
  7  8  1  0
  8  9  1  0
  9 10  1  0
 10 11  2  3
 11 12  1  0
 12 13  2  3
 12 14  1  0
 14 15  1  0
 15 16  3  0
 16 17  1  0
 17 18  2  3
 18 19  1  0
 19 20  1  0
 19 21  2  3
 21 22  1  0
 13  4  1  0
 22  7  1  0
  2 23  1  0
  3 24  1  0
  5 25  1  0
  6 26  1  0
  8 27  1  0
  8 28  1  0
  9 29  1  0
  9 30  1  0
 11 31  1  0
 13 32  1  0
 14 33  1  0
 18 34  1  0
 21 35  1  0
 22 36  1  0
M  END
>  <candidate_id>  (82) 
CAND_2584beb1c0

>  <source_generator>  (82) 
selfies

>  <parent_mol_id>  (82) 
JAK2_e8465d9792

>  <canonical_smiles>  (82) 
O=CNC1=CC=C2CCN=CC(=C1)NC#CN=CC(Cl)=CN2

>  <inchikey>  (82) 
ZVLNVLHVARXKRZ-UHFFFAOYSA-N

>  <valid_rdkit>  (82) 
True

>  <unique_flag>  (82) 
True

>  <novel_flag>  (82) 
True

>  <mw>  (82) 
315.764

>  <logp>  (82) 
1.1208

>  <tpsa>  (82) 
77.88

>  <hbd>  (82) 
3

>  <hba>  (82) 
5

>  <rotatable_bonds>  (82) 
2

>  <qed>  (82) 
0.5277

>  <sa_score>  (82) 
3.2

>  <murcko_scaffold>  (82) 
C1#CNC2=CC=CC=C(CCN=C2)NC=CC=N1

>  <max_ring_size>  (82) 
14

>  <has_macrocycle_12_20>  (82) 
True

>  <has_constrained_ring_8_11>  (82) 
False

>  <passes_basic_filters>  (82) 
True

>  <generation_notes>  (82) 
selfies_token_mutation

>  <best_score>  (82) 
nan

>  <qed_admet>  (82) 
0.5277

>  <sa_score_admet>  (82) 
3.2

>  <mw_admet>  (82) 
315.764

>  <logp_admet>  (82) 
1.1208

>  <tpsa_admet>  (82) 
77.88

>  <hbd_admet>  (82) 
3

>  <hba_admet>  (82) 
5

>  <rotatable_bonds_admet>  (82) 
2

>  <lipinski_violations>  (82) 
0

>  <veber_pass>  (82) 
True

>  <admet_score>  (82) 
0.787465

>  <synthesis_score>  (82) 
0.755556

>  <safety_proxy_score>  (82) 
1.0

>  <main_risk>  (82) 
no_major_descriptor_risk

>  <pose_score>  (82) 
0.5

>  <pose_decision>  (82) 
nan

>  <contacts_within_4A>  (82) 
nan

>  <hard_clashes_lt_1_8A>  (82) 
nan

>  <smiles>  (82) 
O=CNC1=CC=C2CCN=CC(=C1)NC#CN=CC(Cl)=CN2

>  <docking_score>  (82) 
nan

>  <diversity_cluster>  (82) 
scaffold_3caab913

>  <docking_score_scaled>  (82) 
0.0

>  <novelty_score>  (82) 
1.0

>  <final_weighted_score>  (82) 
0.495826

>  <rank>  (82) 
1321

>  <decision>  (82) 
await_docking

>  <diverse_rank>  (82) 
881

>  <selection_tier>  (82) 
await_docking

$$$$
CAND_0feb57e148
     RDKit          3D

 48 51  0  0  0  0  0  0  0  0999 V2000
    8.3616   -1.1314   -0.5029 C   0  0  0  0  0  0  0  0  0  0  0  0
    6.9081   -0.8905   -0.3225 C   0  0  0  0  0  0  0  0  0  0  0  0
    5.9779   -1.6209    0.3824 C   0  0  0  0  0  0  0  0  0  0  0  0
    4.6887   -1.1291    0.3568 N   0  0  0  0  0  0  0  0  0  0  0  0
    4.6231   -0.0279   -0.3591 C   0  0  0  0  0  0  0  0  0  0  0  0
    3.5343    0.7256   -0.6049 N   0  0  0  0  0  0  0  0  0  0  0  0
    2.2159    0.5721   -0.1851 C   0  0  0  0  0  0  0  0  0  0  0  0
    1.7698   -0.4498    0.6188 C   0  0  0  0  0  0  0  0  0  0  0  0
    0.4309   -0.4444    0.9050 C   0  0  0  0  0  0  0  0  0  0  0  0
   -0.4112    0.5147    0.5039 N   0  0  0  0  0  0  0  0  0  0  0  0
    0.0906    1.4727   -0.2698 C   0  0  0  0  0  0  0  0  0  0  0  0
    1.3751    1.5248   -0.6409 N   0  0  0  0  0  0  0  0  0  0  0  0
   -0.7132    2.4755   -0.7358 N   0  0  0  0  0  0  0  0  0  0  0  0
   -2.1180    2.5804   -0.3662 C   0  0  1  0  0  0  0  0  0  0  0  0
   -2.6480    3.9485   -0.7996 C   0  0  0  0  0  0  0  0  0  0  0  0
   -2.9785    1.4615   -0.9582 C   0  0  0  0  0  0  0  0  0  0  0  0
   -3.1862    1.4247   -2.2946 N   0  0  0  0  0  0  0  0  0  0  0  0
   -3.8325    0.3356   -2.7625 C   0  0  0  0  0  0  0  0  0  0  0  0
   -4.2424   -0.7079   -1.9658 C   0  0  0  0  0  0  0  0  0  0  0  0
   -4.8234   -1.7938   -2.4906 F   0  0  0  0  0  0  0  0  0  0  0  0
   -3.9939   -0.5927   -0.6141 C   0  0  0  0  0  0  0  0  0  0  0  0
   -3.4173    0.5118   -0.1001 N   0  0  0  0  0  0  0  0  0  0  0  0
   -4.2708   -1.7548    0.3059 C   0  0  0  0  0  0  0  0  0  0  0  0
   -3.8960   -1.5930    1.7906 C   0  0  0  0  0  0  0  0  0  0  0  0
   -2.4470   -1.2132    2.1382 C   0  0  0  0  0  0  0  0  0  0  0  0
   -1.3685   -1.8956    1.2985 C   0  0  0  0  0  0  0  0  0  0  0  0
   -0.0540   -1.4726    1.6923 O   0  0  0  0  0  0  0  0  0  0  0  0
    6.1397    0.4584   -1.0408 S   0  0  0  0  0  0  0  0  0  0  0  0
    8.6764   -2.0378    0.0248 H   0  0  0  0  0  0  0  0  0  0  0  0
    8.9468   -0.2943   -0.1083 H   0  0  0  0  0  0  0  0  0  0  0  0
    8.6061   -1.2594   -1.5625 H   0  0  0  0  0  0  0  0  0  0  0  0
    6.1833   -2.5278    0.9386 H   0  0  0  0  0  0  0  0  0  0  0  0
    3.6257    1.5498   -1.1833 H   0  0  0  0  0  0  0  0  0  0  0  0
    2.4075   -1.2333    0.9979 H   0  0  0  0  0  0  0  0  0  0  0  0
   -0.3069    3.0724   -1.4358 H   0  0  0  0  0  0  0  0  0  0  0  0
   -2.2051    2.5394    0.7281 H   0  0  0  0  0  0  0  0  0  0  0  0
   -2.0762    4.7528   -0.3230 H   0  0  0  0  0  0  0  0  0  0  0  0
   -3.7006    4.0695   -0.5209 H   0  0  0  0  0  0  0  0  0  0  0  0
   -2.5692    4.0903   -1.8838 H   0  0  0  0  0  0  0  0  0  0  0  0
   -3.9942    0.3088   -3.8347 H   0  0  0  0  0  0  0  0  0  0  0  0
   -5.3445   -1.9763    0.2531 H   0  0  0  0  0  0  0  0  0  0  0  0
   -3.7505   -2.6364   -0.0894 H   0  0  0  0  0  0  0  0  0  0  0  0
   -4.5601   -0.8486    2.2487 H   0  0  0  0  0  0  0  0  0  0  0  0
   -4.1237   -2.5446    2.2887 H   0  0  0  0  0  0  0  0  0  0  0  0
   -2.2686   -1.4457    3.1966 H   0  0  0  0  0  0  0  0  0  0  0  0
   -2.3326   -0.1254    2.0889 H   0  0  0  0  0  0  0  0  0  0  0  0
   -1.4125   -2.9756    1.4821 H   0  0  0  0  0  0  0  0  0  0  0  0
   -1.5160   -1.7669    0.2199 H   0  0  0  0  0  0  0  0  0  0  0  0
  1  2  1  0
  2  3  2  0
  3  4  1  0
  4  5  2  0
  5  6  1  0
  6  7  1  0
  7  8  2  0
  8  9  1  0
  9 10  2  0
 10 11  1  0
 11 12  2  0
 11 13  1  0
 13 14  1  0
 14 15  1  0
 14 16  1  0
 16 17  1  0
 17 18  2  0
 18 19  1  0
 19 20  1  0
 19 21  2  0
 21 22  1  0
 21 23  1  0
 23 24  1  0
 24 25  1  0
 25 26  1  0
 26 27  1  0
  5 28  1  0
 28  2  1  0
 12  7  1  0
 22 16  2  0
 27  9  1  0
  1 29  1  0
  1 30  1  0
  1 31  1  0
  3 32  1  0
  6 33  1  0
  8 34  1  0
 13 35  1  0
 14 36  1  1
 15 37  1  0
 15 38  1  0
 15 39  1  0
 18 40  1  0
 23 41  1  0
 23 42  1  0
 24 43  1  0
 24 44  1  0
 25 45  1  0
 25 46  1  0
 26 47  1  0
 26 48  1  0
M  END
>  <candidate_id>  (83) 
CAND_0feb57e148

>  <source_generator>  (83) 
macrocycle_linker

>  <parent_mol_id>  (83) 
JAK2_eb0f359259

>  <canonical_smiles>  (83) 
Cc1cnc(Nc2cc3nc(n2)N[C@@H](C)c2ncc(F)c(n2)CCCCO3)s1

>  <inchikey>  (83) 
BEZWJWDJVAUZDJ-NSHDSACASA-N

>  <valid_rdkit>  (83) 
True

>  <unique_flag>  (83) 
True

>  <novel_flag>  (83) 
True

>  <mw>  (83) 
401.471

>  <logp>  (83) 
3.8024

>  <tpsa>  (83) 
97.74

>  <hbd>  (83) 
2

>  <hba>  (83) 
9

>  <rotatable_bonds>  (83) 
2

>  <qed>  (83) 
0.6691

>  <sa_score>  (83) 
3.986

>  <murcko_scaffold>  (83) 
c1cc2nc(n1)CNc1nc(Nc3nccs3)cc(n1)OCCCC2

>  <max_ring_size>  (83) 
13

>  <has_macrocycle_12_20>  (83) 
True

>  <has_constrained_ring_8_11>  (83) 
False

>  <passes_basic_filters>  (83) 
True

>  <generation_notes>  (83) 
macrocycle_bridge_oxa_aza_path9_ring12

>  <best_score>  (83) 
nan

>  <qed_admet>  (83) 
0.6691

>  <sa_score_admet>  (83) 
3.986

>  <mw_admet>  (83) 
401.471

>  <logp_admet>  (83) 
3.8024

>  <tpsa_admet>  (83) 
97.74

>  <hbd_admet>  (83) 
2

>  <hba_admet>  (83) 
9

>  <rotatable_bonds_admet>  (83) 
2

>  <lipinski_violations>  (83) 
0

>  <veber_pass>  (83) 
True

>  <admet_score>  (83) 
0.851095

>  <synthesis_score>  (83) 
0.668222

>  <safety_proxy_score>  (83) 
1.0

>  <main_risk>  (83) 
no_major_descriptor_risk

>  <pose_score>  (83) 
0.5

>  <pose_decision>  (83) 
nan

>  <contacts_within_4A>  (83) 
nan

>  <hard_clashes_lt_1_8A>  (83) 
nan

>  <smiles>  (83) 
Cc1cnc(Nc2cc3nc(n2)N[C@@H](C)c2ncc(F)c(n2)CCCCO3)s1

>  <docking_score>  (83) 
nan

>  <diversity_cluster>  (83) 
scaffold_dc1b4476

>  <docking_score_scaled>  (83) 
0.0

>  <novelty_score>  (83) 
1.0

>  <final_weighted_score>  (83) 
0.495452

>  <rank>  (83) 
1330

>  <decision>  (83) 
await_docking

>  <diverse_rank>  (83) 
890

>  <selection_tier>  (83) 
await_docking

$$$$
CAND_c5052727aa
     RDKit          3D

 48 51  0  0  0  0  0  0  0  0999 V2000
    1.2277    5.5050   -1.5055 C   0  0  0  0  0  0  0  0  0  0  0  0
   -0.0627    5.3320   -0.9277 O   0  0  0  0  0  0  0  0  0  0  0  0
   -0.3038    4.0334   -0.5144 C   0  0  0  0  0  0  0  0  0  0  0  0
   -1.5463    3.8010    0.0268 C   0  0  0  0  0  0  0  0  0  0  0  0
   -1.7885    2.5075    0.4071 C   0  0  0  0  0  0  0  0  0  0  0  0
   -0.8280    1.5709    0.3180 N   0  0  0  0  0  0  0  0  0  0  0  0
    0.3482    1.8758   -0.2268 C   0  0  0  0  0  0  0  0  0  0  0  0
    0.6485    3.0950   -0.6679 N   0  0  0  0  0  0  0  0  0  0  0  0
    1.2985    0.9008   -0.3549 N   0  0  0  0  0  0  0  0  0  0  0  0
    1.3864   -0.2090    0.5961 C   0  0  2  0  0  0  0  0  0  0  0  0
    2.7893   -0.8374    0.5799 C   0  0  0  0  0  0  0  0  0  0  0  0
    3.0881   -1.7430    1.5414 N   0  0  0  0  0  0  0  0  0  0  0  0
    4.3307   -2.2737    1.5077 C   0  0  0  0  0  0  0  0  0  0  0  0
    5.2712   -1.9360    0.5676 C   0  0  0  0  0  0  0  0  0  0  0  0
    6.4924   -2.4803    0.5614 F   0  0  0  0  0  0  0  0  0  0  0  0
    4.8862   -1.0058   -0.3642 C   0  0  0  0  0  0  0  0  0  0  0  0
    3.6606   -0.4377   -0.3834 N   0  0  0  0  0  0  0  0  0  0  0  0
    0.2970   -1.2805    0.3871 C   0  0  0  0  0  0  0  0  0  0  0  0
    0.3854   -2.0977   -0.9091 C   0  0  0  0  0  0  0  0  0  0  0  0
   -0.9866   -2.5248   -1.4585 C   0  0  0  0  0  0  0  0  0  0  0  0
   -1.9158   -3.2413   -0.4594 C   0  0  0  0  0  0  0  0  0  0  0  0
   -3.3926   -2.8059   -0.5603 C   0  0  0  0  0  0  0  0  0  0  0  0
   -3.6395   -1.4853    0.1052 C   0  0  0  0  0  0  0  0  0  0  0  0
   -4.0266   -1.1950    1.3992 C   0  0  0  0  0  0  0  0  0  0  0  0
   -3.9952    0.1454    1.7541 N   0  0  0  0  0  0  0  0  0  0  0  0
   -3.4923    0.8480    0.7616 C   0  0  0  0  0  0  0  0  0  0  0  0
   -3.4533   -0.0101   -0.7439 S   0  0  0  0  0  0  0  0  0  0  0  0
   -3.0631    2.1285    0.8725 N   0  0  0  0  0  0  0  0  0  0  0  0
    1.3214    6.5541   -1.8025 H   0  0  0  0  0  0  0  0  0  0  0  0
    2.0195    5.2930   -0.7786 H   0  0  0  0  0  0  0  0  0  0  0  0
    1.3447    4.8925   -2.4063 H   0  0  0  0  0  0  0  0  0  0  0  0
   -2.2906    4.5803    0.0940 H   0  0  0  0  0  0  0  0  0  0  0  0
    2.1619    1.1931   -0.7940 H   0  0  0  0  0  0  0  0  0  0  0  0
    1.2683    0.2014    1.6089 H   0  0  0  0  0  0  0  0  0  0  0  0
    4.5549   -2.9999    2.2817 H   0  0  0  0  0  0  0  0  0  0  0  0
    5.5696   -0.6819   -1.1418 H   0  0  0  0  0  0  0  0  0  0  0  0
   -0.6864   -0.8144    0.4565 H   0  0  0  0  0  0  0  0  0  0  0  0
    0.3390   -1.9845    1.2296 H   0  0  0  0  0  0  0  0  0  0  0  0
    0.9971   -2.9904   -0.7311 H   0  0  0  0  0  0  0  0  0  0  0  0
    0.8918   -1.5212   -1.6922 H   0  0  0  0  0  0  0  0  0  0  0  0
   -0.8196   -3.1909   -2.3150 H   0  0  0  0  0  0  0  0  0  0  0  0
   -1.4661   -1.6381   -1.8805 H   0  0  0  0  0  0  0  0  0  0  0  0
   -1.8635   -4.3168   -0.6729 H   0  0  0  0  0  0  0  0  0  0  0  0
   -1.5714   -3.1256    0.5735 H   0  0  0  0  0  0  0  0  0  0  0  0
   -3.7142   -2.7864   -1.6085 H   0  0  0  0  0  0  0  0  0  0  0  0
   -4.0111   -3.5626   -0.0609 H   0  0  0  0  0  0  0  0  0  0  0  0
   -4.2972   -1.9280    2.1495 H   0  0  0  0  0  0  0  0  0  0  0  0
   -3.3642    2.6464    1.6855 H   0  0  0  0  0  0  0  0  0  0  0  0
  1  2  1  0
  2  3  1  0
  3  4  2  0
  4  5  1  0
  5  6  2  0
  6  7  1  0
  7  8  2  0
  7  9  1  0
  9 10  1  0
 10 11  1  0
 11 12  2  0
 12 13  1  0
 13 14  2  0
 14 15  1  0
 14 16  1  0
 16 17  2  0
 10 18  1  0
 18 19  1  0
 19 20  1  0
 20 21  1  0
 21 22  1  0
 22 23  1  0
 23 24  2  0
 24 25  1  0
 25 26  2  0
 26 27  1  0
 26 28  1  0
  8  3  1  0
 17 11  1  0
 27 23  1  0
 28  5  1  0
  1 29  1  0
  1 30  1  0
  1 31  1  0
  4 32  1  0
  9 33  1  0
 10 34  1  1
 13 35  1  0
 16 36  1  0
 18 37  1  0
 18 38  1  0
 19 39  1  0
 19 40  1  0
 20 41  1  0
 20 42  1  0
 21 43  1  0
 21 44  1  0
 22 45  1  0
 22 46  1  0
 24 47  1  0
 28 48  1  0
M  END
>  <candidate_id>  (84) 
CAND_c5052727aa

>  <source_generator>  (84) 
macrocycle_linker

>  <parent_mol_id>  (84) 
JAK2_eb0f359259

>  <canonical_smiles>  (84) 
COc1cc2nc(n1)N[C@H](c1ncc(F)cn1)CCCCCc1cnc(s1)N2

>  <inchikey>  (84) 
XRWRUWMGVDFYTL-ZDUSSCGKSA-N

>  <valid_rdkit>  (84) 
True

>  <unique_flag>  (84) 
True

>  <novel_flag>  (84) 
True

>  <mw>  (84) 
401.471

>  <logp>  (84) 
3.8841

>  <tpsa>  (84) 
97.74

>  <hbd>  (84) 
2

>  <hba>  (84) 
9

>  <rotatable_bonds>  (84) 
2

>  <qed>  (84) 
0.6675

>  <sa_score>  (84) 
3.986

>  <murcko_scaffold>  (84) 
c1cnc([C@@H]2CCCCCc3cnc(s3)Nc3ccnc(n3)N2)nc1

>  <max_ring_size>  (84) 
14

>  <has_macrocycle_12_20>  (84) 
True

>  <has_constrained_ring_8_11>  (84) 
False

>  <passes_basic_filters>  (84) 
True

>  <generation_notes>  (84) 
macrocycle_bridge_oxa_aza_path10_ring13

>  <best_score>  (84) 
nan

>  <qed_admet>  (84) 
0.6675

>  <sa_score_admet>  (84) 
3.986

>  <mw_admet>  (84) 
401.471

>  <logp_admet>  (84) 
3.8841

>  <tpsa_admet>  (84) 
97.74

>  <hbd_admet>  (84) 
2

>  <hba_admet>  (84) 
9

>  <rotatable_bonds_admet>  (84) 
2

>  <lipinski_violations>  (84) 
0

>  <veber_pass>  (84) 
True

>  <admet_score>  (84) 
0.850375

>  <synthesis_score>  (84) 
0.668222

>  <safety_proxy_score>  (84) 
1.0

>  <main_risk>  (84) 
no_major_descriptor_risk

>  <pose_score>  (84) 
0.5

>  <pose_decision>  (84) 
nan

>  <contacts_within_4A>  (84) 
nan

>  <hard_clashes_lt_1_8A>  (84) 
nan

>  <smiles>  (84) 
COc1cc2nc(n1)N[C@H](c1ncc(F)cn1)CCCCCc1cnc(s1)N2

>  <docking_score>  (84) 
nan

>  <diversity_cluster>  (84) 
scaffold_7fe69bef

>  <docking_score_scaled>  (84) 
0.0

>  <novelty_score>  (84) 
1.0

>  <final_weighted_score>  (84) 
0.495308

>  <rank>  (84) 
1349

>  <decision>  (84) 
await_docking

>  <diverse_rank>  (84) 
899

>  <selection_tier>  (84) 
await_docking

$$$$
CAND_a30de9a90d
     RDKit          3D

 45 47  0  0  0  0  0  0  0  0999 V2000
    3.1986    1.5878    2.3759 C   0  0  0  0  0  0  0  0  0  0  0  0
    2.1908    1.6066    1.2259 C   0  0  1  0  0  0  0  0  0  0  0  0
    1.2064    2.7479    1.4544 C   0  0  0  0  0  0  0  0  0  0  0  0
    0.4962    3.4594    0.6243 N   0  0  0  0  0  0  0  0  0  0  0  0
    0.5503    3.2327   -0.7196 C   0  0  0  0  0  0  0  0  0  0  0  0
    0.0157    2.2346   -1.4326 C   0  0  0  0  0  0  0  0  0  0  0  0
    0.1336    2.2734   -2.7802 F   0  0  0  0  0  0  0  0  0  0  0  0
   -0.6998    1.0265   -0.9591 C   0  0  0  0  0  0  0  0  0  0  0  0
   -0.8213    0.6368    0.2710 N   0  0  0  0  0  0  0  0  0  0  0  0
   -1.4363   -0.6237    0.3308 C   0  0  0  0  0  0  0  0  0  0  0  0
   -0.8605   -1.8765   -0.0403 C   0  0  0  0  0  0  0  0  0  0  0  0
   -1.7546   -2.8647    0.0991 N   0  0  0  0  0  0  0  0  0  0  0  0
   -2.8387   -2.2523    0.6200 N   0  0  0  0  0  0  0  0  0  0  0  0
   -2.7031   -0.9022    0.7584 C   0  0  0  0  0  0  0  0  0  0  0  0
   -3.7516    0.0869    1.3071 C   0  0  0  0  0  0  0  0  0  0  0  0
   -5.1977   -0.0660    0.9163 C   0  0  0  0  0  0  0  0  0  0  0  0
   -4.3878    1.0665    0.3571 C   0  0  0  0  0  0  0  0  0  0  0  0
    0.4126   -1.9469   -0.4926 N   0  0  0  0  0  0  0  0  0  0  0  0
    1.1144   -2.9506   -1.1423 C   0  0  0  0  0  0  0  0  0  0  0  0
    0.5570   -4.1098   -1.3619 C   0  0  0  0  0  0  0  0  0  0  0  0
   -0.0195   -5.1210   -1.5151 N   0  0  0  0  0  0  0  0  0  0  0  0
    2.4483   -2.6711   -1.6709 C   0  0  0  0  0  0  0  0  0  0  0  0
    2.9982   -3.6042   -2.4843 F   0  0  0  0  0  0  0  0  0  0  0  0
    3.1653   -1.5541   -1.4433 C   0  0  0  0  0  0  0  0  0  0  0  0
    2.7515   -0.5483   -0.6046 N   0  0  0  0  0  0  0  0  0  0  0  0
    3.2357    0.6310   -0.7987 C   0  0  0  0  0  0  0  0  0  0  0  0
    2.9339    1.7132   -0.0246 N   0  0  0  0  0  0  0  0  0  0  0  0
    2.6931    1.4759    3.3413 H   0  0  0  0  0  0  0  0  0  0  0  0
    3.9046    0.7573    2.2663 H   0  0  0  0  0  0  0  0  0  0  0  0
    3.7779    2.5179    2.4108 H   0  0  0  0  0  0  0  0  0  0  0  0
    1.6086    0.6814    1.2769 H   0  0  0  0  0  0  0  0  0  0  0  0
    1.0140    2.9806    2.5179 H   0  0  0  0  0  0  0  0  0  0  0  0
    1.0207    4.0344   -1.2854 H   0  0  0  0  0  0  0  0  0  0  0  0
   -1.1054    0.4239   -1.7966 H   0  0  0  0  0  0  0  0  0  0  0  0
   -3.6476   -2.8187    0.8484 H   0  0  0  0  0  0  0  0  0  0  0  0
   -3.5420    0.4492    2.3096 H   0  0  0  0  0  0  0  0  0  0  0  0
   -5.9499    0.1711    1.6604 H   0  0  0  0  0  0  0  0  0  0  0  0
   -5.4880   -0.8537    0.2314 H   0  0  0  0  0  0  0  0  0  0  0  0
   -4.5805    2.0676    0.7255 H   0  0  0  0  0  0  0  0  0  0  0  0
   -4.1137    1.0287   -0.6908 H   0  0  0  0  0  0  0  0  0  0  0  0
    0.9977   -1.1152   -0.3625 H   0  0  0  0  0  0  0  0  0  0  0  0
   -0.9350   -5.0384   -1.0477 H   0  0  0  0  0  0  0  0  0  0  0  0
    4.1423   -1.4709   -1.9154 H   0  0  0  0  0  0  0  0  0  0  0  0
    3.9334    0.8785   -1.6202 H   0  0  0  0  0  0  0  0  0  0  0  0
    3.3323    2.6186   -0.2442 H   0  0  0  0  0  0  0  0  0  0  0  0
  1  2  1  0
  2  3  1  0
  3  4  2  3
  4  5  1  0
  5  6  2  3
  6  7  1  0
  6  8  1  0
  8  9  2  3
  9 10  1  0
 10 11  1  0
 11 12  2  0
 12 13  1  0
 13 14  1  0
 14 15  1  0
 15 16  1  0
 16 17  1  0
 11 18  1  0
 18 19  1  0
 19 20  2  0
 20 21  2  0
 19 22  1  0
 22 23  1  0
 22 24  2  3
 24 25  1  0
 25 26  2  3
 26 27  1  0
 27  2  1  0
 14 10  2  0
 17 15  1  0
  1 28  1  0
  1 29  1  0
  1 30  1  0
  2 31  1  6
  3 32  1  0
  5 33  1  0
  8 34  1  0
 13 35  1  0
 15 36  1  0
 16 37  1  0
 16 38  1  0
 17 39  1  0
 17 40  1  0
 18 41  1  0
 21 42  1  0
 24 43  1  0
 26 44  1  0
 27 45  1  0
M  END
>  <candidate_id>  (85) 
CAND_a30de9a90d

>  <source_generator>  (85) 
selfies

>  <parent_mol_id>  (85) 
JAK2_2b11517983

>  <canonical_smiles>  (85) 
C[C@H]1C=NC=C(F)C=Nc2c(n[nH]c2C2CC2)NC(=C=N)C(F)=CN=CN1

>  <inchikey>  (85) 
QASJWSOBVMRAMS-JTQLQIEISA-N

>  <valid_rdkit>  (85) 
True

>  <unique_flag>  (85) 
True

>  <novel_flag>  (85) 
True

>  <mw>  (85) 
372.383

>  <logp>  (85) 
3.2463

>  <tpsa>  (85) 
113.67

>  <hbd>  (85) 
4

>  <hba>  (85) 
7

>  <rotatable_bonds>  (85) 
1

>  <qed>  (85) 
0.5675

>  <sa_score>  (85) 
3.449

>  <murcko_scaffold>  (85) 
C=C1C=CN=CNCC=NC=CC=Nc2c(n[nH]c2C2CC2)N1

>  <max_ring_size>  (85) 
16

>  <has_macrocycle_12_20>  (85) 
True

>  <has_constrained_ring_8_11>  (85) 
False

>  <passes_basic_filters>  (85) 
True

>  <generation_notes>  (85) 
selfies_token_mutation

>  <best_score>  (85) 
nan

>  <qed_admet>  (85) 
0.5675

>  <sa_score_admet>  (85) 
3.449

>  <mw_admet>  (85) 
372.383

>  <logp_admet>  (85) 
3.2463

>  <tpsa_admet>  (85) 
113.67

>  <hbd_admet>  (85) 
4

>  <hba_admet>  (85) 
7

>  <rotatable_bonds_admet>  (85) 
1

>  <lipinski_violations>  (85) 
0

>  <veber_pass>  (85) 
True

>  <admet_score>  (85) 
0.805375

>  <synthesis_score>  (85) 
0.727889

>  <safety_proxy_score>  (85) 
1.0

>  <main_risk>  (85) 
no_major_descriptor_risk

>  <pose_score>  (85) 
0.5

>  <pose_decision>  (85) 
nan

>  <contacts_within_4A>  (85) 
nan

>  <hard_clashes_lt_1_8A>  (85) 
nan

>  <smiles>  (85) 
C[C@H]1C=NC=C(F)C=Nc2c(n[nH]c2C2CC2)NC(=C=N)C(F)=CN=CN1

>  <docking_score>  (85) 
nan

>  <diversity_cluster>  (85) 
scaffold_84d606a3

>  <docking_score_scaled>  (85) 
0.0

>  <novelty_score>  (85) 
1.0

>  <final_weighted_score>  (85) 
0.495258

>  <rank>  (85) 
1351

>  <decision>  (85) 
await_docking

>  <diverse_rank>  (85) 
900

>  <selection_tier>  (85) 
await_docking

$$$$
CAND_e0fb42f17c
     RDKit          3D

 46 49  0  0  0  0  0  0  0  0999 V2000
    0.5871    5.9531    0.4549 C   0  0  0  0  0  0  0  0  0  0  0  0
    1.7792    5.2141    0.2062 O   0  0  0  0  0  0  0  0  0  0  0  0
    1.5713    3.8466    0.1606 C   0  0  0  0  0  0  0  0  0  0  0  0
    2.6897    3.0804   -0.0712 C   0  0  0  0  0  0  0  0  0  0  0  0
    2.4894    1.7228   -0.0984 C   0  0  0  0  0  0  0  0  0  0  0  0
    1.2527    1.2171    0.0349 N   0  0  0  0  0  0  0  0  0  0  0  0
    0.2208    2.0282    0.2742 C   0  0  0  0  0  0  0  0  0  0  0  0
    0.3367    3.3510    0.3515 N   0  0  0  0  0  0  0  0  0  0  0  0
   -1.0171    1.4845    0.4603 N   0  0  0  0  0  0  0  0  0  0  0  0
   -1.3113    0.0999    0.0951 C   0  0  2  0  0  0  0  0  0  0  0  0
   -2.8230   -0.0990   -0.0855 C   0  0  0  0  0  0  0  0  0  0  0  0
   -3.6640    0.7509    0.5582 N   0  0  0  0  0  0  0  0  0  0  0  0
   -4.9872    0.5423    0.3817 C   0  0  0  0  0  0  0  0  0  0  0  0
   -5.4932   -0.4655   -0.3992 C   0  0  0  0  0  0  0  0  0  0  0  0
   -6.8084   -0.6473   -0.5560 F   0  0  0  0  0  0  0  0  0  0  0  0
   -4.5706   -1.2776   -1.0096 C   0  0  0  0  0  0  0  0  0  0  0  0
   -3.2346   -1.1232   -0.8708 N   0  0  0  0  0  0  0  0  0  0  0  0
   -0.7728   -0.8895    1.1432 C   0  0  0  0  0  0  0  0  0  0  0  0
   -0.6890   -2.3227    0.6037 C   0  0  0  0  0  0  0  0  0  0  0  0
    0.3341   -3.0019    1.3333 O   0  0  0  0  0  0  0  0  0  0  0  0
    0.8583   -4.1738    0.7081 C   0  0  0  0  0  0  0  0  0  0  0  0
    1.6827   -3.9253   -0.5693 C   0  0  0  0  0  0  0  0  0  0  0  0
    2.6124   -2.7602   -0.4472 C   0  0  0  0  0  0  0  0  0  0  0  0
    3.7559   -2.5914    0.3045 C   0  0  0  0  0  0  0  0  0  0  0  0
    4.2794   -1.3085    0.3171 N   0  0  0  0  0  0  0  0  0  0  0  0
    3.4791   -0.4931   -0.3394 C   0  0  0  0  0  0  0  0  0  0  0  0
    2.3158   -1.3154   -1.3193 S   0  0  0  0  0  0  0  0  0  0  0  0
    3.5922    0.8564   -0.2630 N   0  0  0  0  0  0  0  0  0  0  0  0
    0.8510    7.0150    0.4700 H   0  0  0  0  0  0  0  0  0  0  0  0
    0.1614    5.7021    1.4327 H   0  0  0  0  0  0  0  0  0  0  0  0
   -0.1465    5.8039   -0.3449 H   0  0  0  0  0  0  0  0  0  0  0  0
    3.6622    3.5314   -0.2031 H   0  0  0  0  0  0  0  0  0  0  0  0
   -1.7826    2.1139    0.6526 H   0  0  0  0  0  0  0  0  0  0  0  0
   -0.8600   -0.1010   -0.8857 H   0  0  0  0  0  0  0  0  0  0  0  0
   -5.6474    1.2285    0.9012 H   0  0  0  0  0  0  0  0  0  0  0  0
   -4.8881   -2.0980   -1.6444 H   0  0  0  0  0  0  0  0  0  0  0  0
    0.2260   -0.5888    1.4809 H   0  0  0  0  0  0  0  0  0  0  0  0
   -1.3913   -0.8778    2.0506 H   0  0  0  0  0  0  0  0  0  0  0  0
   -1.6356   -2.8521    0.7550 H   0  0  0  0  0  0  0  0  0  0  0  0
   -0.4642   -2.3214   -0.4655 H   0  0  0  0  0  0  0  0  0  0  0  0
    0.0420   -4.8767    0.5048 H   0  0  0  0  0  0  0  0  0  0  0  0
    1.5061   -4.6491    1.4538 H   0  0  0  0  0  0  0  0  0  0  0  0
    2.2545   -4.8302   -0.8082 H   0  0  0  0  0  0  0  0  0  0  0  0
    0.9967   -3.7744   -1.4119 H   0  0  0  0  0  0  0  0  0  0  0  0
    4.2290   -3.3560    0.9083 H   0  0  0  0  0  0  0  0  0  0  0  0
    4.4210    1.1779    0.2183 H   0  0  0  0  0  0  0  0  0  0  0  0
  1  2  1  0
  2  3  1  0
  3  4  2  0
  4  5  1  0
  5  6  2  0
  6  7  1  0
  7  8  2  0
  7  9  1  0
  9 10  1  0
 10 11  1  0
 11 12  2  0
 12 13  1  0
 13 14  2  0
 14 15  1  0
 14 16  1  0
 16 17  2  0
 10 18  1  0
 18 19  1  0
 19 20  1  0
 20 21  1  0
 21 22  1  0
 22 23  1  0
 23 24  2  0
 24 25  1  0
 25 26  2  0
 26 27  1  0
 26 28  1  0
  8  3  1  0
 17 11  1  0
 27 23  1  0
 28  5  1  0
  1 29  1  0
  1 30  1  0
  1 31  1  0
  4 32  1  0
  9 33  1  0
 10 34  1  6
 13 35  1  0
 16 36  1  0
 18 37  1  0
 18 38  1  0
 19 39  1  0
 19 40  1  0
 21 41  1  0
 21 42  1  0
 22 43  1  0
 22 44  1  0
 24 45  1  0
 28 46  1  0
M  END
>  <candidate_id>  (86) 
CAND_e0fb42f17c

>  <source_generator>  (86) 
macrocycle_linker

>  <parent_mol_id>  (86) 
JAK2_eb0f359259

>  <canonical_smiles>  (86) 
COc1cc2nc(n1)N[C@H](c1ncc(F)cn1)CCOCCc1cnc(s1)N2

>  <inchikey>  (86) 
OTBFDRRXPWEFKF-LBPRGKRZSA-N

>  <valid_rdkit>  (86) 
True

>  <unique_flag>  (86) 
True

>  <novel_flag>  (86) 
True

>  <mw>  (86) 
403.443

>  <logp>  (86) 
2.7304

>  <tpsa>  (86) 
106.97

>  <hbd>  (86) 
2

>  <hba>  (86) 
10

>  <rotatable_bonds>  (86) 
2

>  <qed>  (86) 
0.6677

>  <sa_score>  (86) 
3.997

>  <murcko_scaffold>  (86) 
c1cnc([C@@H]2CCOCCc3cnc(s3)Nc3ccnc(n3)N2)nc1

>  <max_ring_size>  (86) 
14

>  <has_macrocycle_12_20>  (86) 
True

>  <has_constrained_ring_8_11>  (86) 
False

>  <passes_basic_filters>  (86) 
True

>  <generation_notes>  (86) 
macrocycle_bridge_oxa_path10_ring13

>  <best_score>  (86) 
nan

>  <qed_admet>  (86) 
0.6677

>  <sa_score_admet>  (86) 
3.997

>  <mw_admet>  (86) 
403.443

>  <logp_admet>  (86) 
2.7304

>  <tpsa_admet>  (86) 
106.97

>  <hbd_admet>  (86) 
2

>  <hba_admet>  (86) 
10

>  <rotatable_bonds_admet>  (86) 
2

>  <lipinski_violations>  (86) 
0

>  <veber_pass>  (86) 
True

>  <admet_score>  (86) 
0.850465

>  <synthesis_score>  (86) 
0.667

>  <safety_proxy_score>  (86) 
1.0

>  <main_risk>  (86) 
no_major_descriptor_risk

>  <pose_score>  (86) 
0.5

>  <pose_decision>  (86) 
nan

>  <contacts_within_4A>  (86) 
nan

>  <hard_clashes_lt_1_8A>  (86) 
nan

>  <smiles>  (86) 
COc1cc2nc(n1)N[C@H](c1ncc(F)cn1)CCOCCc1cnc(s1)N2

>  <docking_score>  (86) 
nan

>  <diversity_cluster>  (86) 
scaffold_2147f04d

>  <docking_score_scaled>  (86) 
0.0

>  <novelty_score>  (86) 
1.0

>  <final_weighted_score>  (86) 
0.495143

>  <rank>  (86) 
1355

>  <decision>  (86) 
await_docking

>  <diverse_rank>  (86) 
903

>  <selection_tier>  (86) 
await_docking

$$$$
CAND_5ca47dbfbb
     RDKit          3D

 46 49  0  0  0  0  0  0  0  0999 V2000
    7.5777    1.0306   -1.1492 C   0  0  0  0  0  0  0  0  0  0  0  0
    6.2273    0.6501   -0.6655 C   0  0  0  0  0  0  0  0  0  0  0  0
    5.3887    1.3101    0.2043 C   0  0  0  0  0  0  0  0  0  0  0  0
    4.1853    0.6882    0.4595 N   0  0  0  0  0  0  0  0  0  0  0  0
    4.0838   -0.4348   -0.2155 C   0  0  0  0  0  0  0  0  0  0  0  0
    3.0598   -1.3169   -0.2096 N   0  0  0  0  0  0  0  0  0  0  0  0
    1.7739   -1.1064    0.3212 C   0  0  0  0  0  0  0  0  0  0  0  0
    0.9924   -2.2143    0.5802 C   0  0  0  0  0  0  0  0  0  0  0  0
   -0.2482   -1.9642    1.1057 C   0  0  0  0  0  0  0  0  0  0  0  0
   -0.6820   -0.7461    1.4285 N   0  0  0  0  0  0  0  0  0  0  0  0
    0.1178    0.2768    1.1403 C   0  0  0  0  0  0  0  0  0  0  0  0
    1.3236    0.1330    0.5837 N   0  0  0  0  0  0  0  0  0  0  0  0
   -0.2937    1.5602    1.3774 N   0  0  0  0  0  0  0  0  0  0  0  0
   -1.6513    1.8523    1.8146 C   0  0  1  0  0  0  0  0  0  0  0  0
   -1.7114    3.2971    2.3147 C   0  0  0  0  0  0  0  0  0  0  0  0
   -2.6840    1.6104    0.7081 C   0  0  0  0  0  0  0  0  0  0  0  0
   -2.8078    2.5123   -0.2935 N   0  0  0  0  0  0  0  0  0  0  0  0
   -3.6371    2.1718   -1.3038 C   0  0  0  0  0  0  0  0  0  0  0  0
   -4.3036    0.9708   -1.3730 C   0  0  0  0  0  0  0  0  0  0  0  0
   -5.0707    0.6629   -2.4257 F   0  0  0  0  0  0  0  0  0  0  0  0
   -4.1091    0.0985   -0.3266 C   0  0  0  0  0  0  0  0  0  0  0  0
   -3.3529    0.4376    0.7423 N   0  0  0  0  0  0  0  0  0  0  0  0
   -4.6992   -1.2923   -0.3602 C   0  0  0  0  0  0  0  0  0  0  0  0
   -3.8469   -2.2967    0.2178 O   0  0  0  0  0  0  0  0  0  0  0  0
   -2.6680   -2.5413   -0.5553 C   0  0  0  0  0  0  0  0  0  0  0  0
   -1.7290   -3.5109    0.1787 C   0  0  0  0  0  0  0  0  0  0  0  0
   -1.1241   -2.9843    1.3711 O   0  0  0  0  0  0  0  0  0  0  0  0
    5.4786   -0.8000   -1.1795 S   0  0  0  0  0  0  0  0  0  0  0  0
    8.3190    0.2755   -0.8678 H   0  0  0  0  0  0  0  0  0  0  0  0
    7.5851    1.1374   -2.2389 H   0  0  0  0  0  0  0  0  0  0  0  0
    7.8932    1.9862   -0.7174 H   0  0  0  0  0  0  0  0  0  0  0  0
    5.6028    2.2545    0.6900 H   0  0  0  0  0  0  0  0  0  0  0  0
    3.1550   -2.1424   -0.7796 H   0  0  0  0  0  0  0  0  0  0  0  0
    1.3300   -3.2225    0.3935 H   0  0  0  0  0  0  0  0  0  0  0  0
    0.3024    2.2710    0.9854 H   0  0  0  0  0  0  0  0  0  0  0  0
   -1.9093    1.2140    2.6705 H   0  0  0  0  0  0  0  0  0  0  0  0
   -1.0196    3.4444    3.1517 H   0  0  0  0  0  0  0  0  0  0  0  0
   -2.7195    3.5531    2.6587 H   0  0  0  0  0  0  0  0  0  0  0  0
   -1.4316    4.0115    1.5316 H   0  0  0  0  0  0  0  0  0  0  0  0
   -3.7362    2.9058   -2.0965 H   0  0  0  0  0  0  0  0  0  0  0  0
   -5.6278   -1.2829    0.2203 H   0  0  0  0  0  0  0  0  0  0  0  0
   -4.9514   -1.5960   -1.3829 H   0  0  0  0  0  0  0  0  0  0  0  0
   -2.1497   -1.6050   -0.7792 H   0  0  0  0  0  0  0  0  0  0  0  0
   -2.9748   -2.9986   -1.5029 H   0  0  0  0  0  0  0  0  0  0  0  0
   -0.9513   -3.8750   -0.5038 H   0  0  0  0  0  0  0  0  0  0  0  0
   -2.3064   -4.3855    0.4994 H   0  0  0  0  0  0  0  0  0  0  0  0
  1  2  1  0
  2  3  2  0
  3  4  1  0
  4  5  2  0
  5  6  1  0
  6  7  1  0
  7  8  2  0
  8  9  1  0
  9 10  2  0
 10 11  1  0
 11 12  2  0
 11 13  1  0
 13 14  1  0
 14 15  1  0
 14 16  1  0
 16 17  1  0
 17 18  2  0
 18 19  1  0
 19 20  1  0
 19 21  2  0
 21 22  1  0
 21 23  1  0
 23 24  1  0
 24 25  1  0
 25 26  1  0
 26 27  1  0
  5 28  1  0
 28  2  1  0
 12  7  1  0
 22 16  2  0
 27  9  1  0
  1 29  1  0
  1 30  1  0
  1 31  1  0
  3 32  1  0
  6 33  1  0
  8 34  1  0
 13 35  1  0
 14 36  1  1
 15 37  1  0
 15 38  1  0
 15 39  1  0
 18 40  1  0
 23 41  1  0
 23 42  1  0
 25 43  1  0
 25 44  1  0
 26 45  1  0
 26 46  1  0
M  END
>  <candidate_id>  (87) 
CAND_5ca47dbfbb

>  <source_generator>  (87) 
macrocycle_linker

>  <parent_mol_id>  (87) 
JAK2_eb0f359259

>  <canonical_smiles>  (87) 
Cc1cnc(Nc2cc3nc(n2)N[C@@H](C)c2ncc(F)c(n2)COCCO3)s1

>  <inchikey>  (87) 
OIHKOJWIWWAURC-JTQLQIEISA-N

>  <valid_rdkit>  (87) 
True

>  <unique_flag>  (87) 
True

>  <novel_flag>  (87) 
True

>  <mw>  (87) 
403.443

>  <logp>  (87) 
2.9963

>  <tpsa>  (87) 
106.97

>  <hbd>  (87) 
2

>  <hba>  (87) 
10

>  <rotatable_bonds>  (87) 
2

>  <qed>  (87) 
0.6675

>  <sa_score>  (87) 
3.997

>  <murcko_scaffold>  (87) 
c1cc2nc(n1)CNc1nc(Nc3nccs3)cc(n1)OCCOC2

>  <max_ring_size>  (87) 
13

>  <has_macrocycle_12_20>  (87) 
True

>  <has_constrained_ring_8_11>  (87) 
False

>  <passes_basic_filters>  (87) 
True

>  <generation_notes>  (87) 
macrocycle_bridge_oxa_path9_ring12

>  <best_score>  (87) 
nan

>  <qed_admet>  (87) 
0.6675

>  <sa_score_admet>  (87) 
3.997

>  <mw_admet>  (87) 
403.443

>  <logp_admet>  (87) 
2.9963

>  <tpsa_admet>  (87) 
106.97

>  <hbd_admet>  (87) 
2

>  <hba_admet>  (87) 
10

>  <rotatable_bonds_admet>  (87) 
2

>  <lipinski_violations>  (87) 
0

>  <veber_pass>  (87) 
True

>  <admet_score>  (87) 
0.850375

>  <synthesis_score>  (87) 
0.667

>  <safety_proxy_score>  (87) 
1.0

>  <main_risk>  (87) 
no_major_descriptor_risk

>  <pose_score>  (87) 
0.5

>  <pose_decision>  (87) 
nan

>  <contacts_within_4A>  (87) 
nan

>  <hard_clashes_lt_1_8A>  (87) 
nan

>  <smiles>  (87) 
Cc1cnc(Nc2cc3nc(n2)N[C@@H](C)c2ncc(F)c(n2)COCCO3)s1

>  <docking_score>  (87) 
nan

>  <diversity_cluster>  (87) 
scaffold_94351de0

>  <docking_score_scaled>  (87) 
0.0

>  <novelty_score>  (87) 
1.0

>  <final_weighted_score>  (87) 
0.495125

>  <rank>  (87) 
1359

>  <decision>  (87) 
await_docking

>  <diverse_rank>  (87) 
907

>  <selection_tier>  (87) 
await_docking

$$$$
CAND_39a45170c0
     RDKit          3D

 67 70  0  0  0  0  0  0  0  0999 V2000
    5.9299    4.7400    0.7574 N   0  0  0  0  0  0  0  0  0  0  0  0
    5.3118    4.4172   -0.1708 C   0  0  0  0  0  0  0  0  0  0  0  0
    4.4927    4.0512   -1.3246 C   0  0  0  0  0  0  0  0  0  0  0  0
    4.0681    2.6039   -1.2357 C   0  0  0  0  0  0  0  0  0  0  0  0
    4.6570    1.7605   -1.9178 O   0  0  0  0  0  0  0  0  0  0  0  0
    3.0078    2.2588   -0.4046 N   0  0  0  0  0  0  0  0  0  0  0  0
    2.3275    3.1526    0.5346 C   0  0  0  0  0  0  0  0  0  0  0  0
    0.7990    3.0170    0.4933 C   0  0  0  0  0  0  0  0  0  0  0  0
    0.2813    1.5766    0.2324 C   0  0  1  0  0  0  0  0  0  0  0  0
   -0.2650    1.4934   -1.2192 C   0  0  0  0  0  0  0  0  0  0  0  0
   -1.6856    2.0734   -1.4099 C   0  0  0  0  0  0  0  0  0  0  0  0
   -2.6971    1.1960   -0.6849 C   0  0  0  0  0  0  0  0  0  0  0  0
   -4.1747    1.4004   -1.0187 C   0  0  0  0  0  0  0  0  0  0  0  0
   -5.0575    0.6085   -0.0291 C   0  0  0  0  0  0  0  0  0  0  0  0
   -4.5712   -0.7630    0.0996 N   0  0  0  0  0  0  0  0  0  0  0  0
   -4.5881   -1.3049    1.4513 C   0  0  0  0  0  0  0  0  0  0  0  0
   -3.3347   -2.1634    1.7135 C   0  0  0  0  0  0  0  0  0  0  0  0
   -2.0324   -1.3564    1.5915 C   0  0  0  0  0  0  0  0  0  0  0  0
   -0.7931   -2.1027    2.0823 C   0  0  0  0  0  0  0  0  0  0  0  0
    0.4649   -1.2145    2.0660 C   0  0  0  0  0  0  0  0  0  0  0  0
    0.9543   -0.8404    0.7290 N   0  0  0  0  0  0  0  0  0  0  0  0
    1.2804   -1.8053   -0.2145 C   0  0  0  0  0  0  0  0  0  0  0  0
    1.1458   -1.4722   -1.5270 N   0  0  0  0  0  0  0  0  0  0  0  0
    1.4099   -2.3723   -2.4913 C   0  0  0  0  0  0  0  0  0  0  0  0
    1.8281   -3.6338   -2.3444 N   0  0  0  0  0  0  0  0  0  0  0  0
    1.9865   -3.9379   -1.0505 C   0  0  0  0  0  0  0  0  0  0  0  0
    2.4293   -5.1547   -0.6123 N   0  0  0  0  0  0  0  0  0  0  0  0
    2.5164   -5.1518    0.7523 C   0  0  0  0  0  0  0  0  0  0  0  0
    2.1128   -3.9070    1.1884 C   0  0  0  0  0  0  0  0  0  0  0  0
    1.7507   -3.1200    0.0494 C   0  0  0  0  0  0  0  0  0  0  0  0
    1.4142    0.5657    0.5542 C   0  0  1  0  0  0  0  0  0  0  0  0
    2.6303    0.8297   -0.3581 C   0  0  0  0  0  0  0  0  0  0  0  0
    5.0732    4.1778   -2.2461 H   0  0  0  0  0  0  0  0  0  0  0  0
    3.6162    4.6972   -1.4279 H   0  0  0  0  0  0  0  0  0  0  0  0
    2.7010    2.8992    1.5345 H   0  0  0  0  0  0  0  0  0  0  0  0
    2.5936    4.1984    0.3711 H   0  0  0  0  0  0  0  0  0  0  0  0
    0.4014    3.3729    1.4524 H   0  0  0  0  0  0  0  0  0  0  0  0
    0.4057    3.7099   -0.2603 H   0  0  0  0  0  0  0  0  0  0  0  0
   -0.5364    1.3877    0.9342 H   0  0  0  0  0  0  0  0  0  0  0  0
    0.4167    2.0086   -1.9072 H   0  0  0  0  0  0  0  0  0  0  0  0
   -0.2993    0.4537   -1.5486 H   0  0  0  0  0  0  0  0  0  0  0  0
   -1.7448    3.1057   -1.0505 H   0  0  0  0  0  0  0  0  0  0  0  0
   -1.9156    2.0862   -2.4818 H   0  0  0  0  0  0  0  0  0  0  0  0
   -2.4538    0.1611   -0.9431 H   0  0  0  0  0  0  0  0  0  0  0  0
   -2.5690    1.3236    0.3947 H   0  0  0  0  0  0  0  0  0  0  0  0
   -4.4343    2.4635   -0.9625 H   0  0  0  0  0  0  0  0  0  0  0  0
   -4.3694    1.0673   -2.0450 H   0  0  0  0  0  0  0  0  0  0  0  0
   -5.0298    1.1376    0.9313 H   0  0  0  0  0  0  0  0  0  0  0  0
   -6.1006    0.6121   -0.3635 H   0  0  0  0  0  0  0  0  0  0  0  0
   -5.0206   -1.3879   -0.5663 H   0  0  0  0  0  0  0  0  0  0  0  0
   -5.4904   -1.9104    1.5923 H   0  0  0  0  0  0  0  0  0  0  0  0
   -4.6158   -0.5143    2.2108 H   0  0  0  0  0  0  0  0  0  0  0  0
   -3.4111   -2.5799    2.7252 H   0  0  0  0  0  0  0  0  0  0  0  0
   -3.3079   -3.0131    1.0202 H   0  0  0  0  0  0  0  0  0  0  0  0
   -1.8662   -1.1115    0.5428 H   0  0  0  0  0  0  0  0  0  0  0  0
   -2.1343   -0.4175    2.1483 H   0  0  0  0  0  0  0  0  0  0  0  0
   -0.9637   -2.4257    3.1168 H   0  0  0  0  0  0  0  0  0  0  0  0
   -0.6575   -3.0120    1.4894 H   0  0  0  0  0  0  0  0  0  0  0  0
    1.2717   -1.6860    2.6345 H   0  0  0  0  0  0  0  0  0  0  0  0
    0.2245   -0.3059    2.6343 H   0  0  0  0  0  0  0  0  0  0  0  0
    1.2659   -2.0291   -3.5108 H   0  0  0  0  0  0  0  0  0  0  0  0
    2.6671   -5.9172   -1.2299 H   0  0  0  0  0  0  0  0  0  0  0  0
    2.8633   -6.0232    1.2916 H   0  0  0  0  0  0  0  0  0  0  0  0
    2.0938   -3.6071    2.2254 H   0  0  0  0  0  0  0  0  0  0  0  0
    1.7724    0.8398    1.5583 H   0  0  0  0  0  0  0  0  0  0  0  0
    3.5009    0.2647   -0.0023 H   0  0  0  0  0  0  0  0  0  0  0  0
    2.4534    0.5292   -1.3944 H   0  0  0  0  0  0  0  0  0  0  0  0
  1  2  3  0
  2  3  1  0
  3  4  1  0
  4  5  2  0
  4  6  1  0
  6  7  1  0
  7  8  1  0
  8  9  1  0
  9 10  1  0
 10 11  1  0
 11 12  1  0
 12 13  1  0
 13 14  1  0
 14 15  1  0
 15 16  1  0
 16 17  1  0
 17 18  1  0
 18 19  1  0
 19 20  1  0
 20 21  1  0
 21 22  1  0
 22 23  2  0
 23 24  1  0
 24 25  2  0
 25 26  1  0
 26 27  1  0
 27 28  1  0
 28 29  2  0
 29 30  1  0
 21 31  1  0
 31 32  1  0
 32  6  1  0
 31  9  1  0
 30 22  1  0
 30 26  2  0
  3 33  1  0
  3 34  1  0
  7 35  1  0
  7 36  1  0
  8 37  1  0
  8 38  1  0
  9 39  1  1
 10 40  1  0
 10 41  1  0
 11 42  1  0
 11 43  1  0
 12 44  1  0
 12 45  1  0
 13 46  1  0
 13 47  1  0
 14 48  1  0
 14 49  1  0
 15 50  1  0
 16 51  1  0
 16 52  1  0
 17 53  1  0
 17 54  1  0
 18 55  1  0
 18 56  1  0
 19 57  1  0
 19 58  1  0
 20 59  1  0
 20 60  1  0
 24 61  1  0
 27 62  1  0
 28 63  1  0
 29 64  1  0
 31 65  1  1
 32 66  1  0
 32 67  1  0
M  END
>  <candidate_id>  (88) 
CAND_39a45170c0

>  <source_generator>  (88) 
macrocycle_linker

>  <parent_mol_id>  (88) 
JAK2_3f3d946705

>  <canonical_smiles>  (88) 
N#CCC(=O)N1CC[C@H]2CCCCCNCCCCCN(c3ncnc4[nH]ccc34)[C@H]2C1

>  <inchikey>  (88) 
WPCFFPYFSMMTJC-CTNGQTDRSA-N

>  <valid_rdkit>  (88) 
True

>  <unique_flag>  (88) 
True

>  <novel_flag>  (88) 
True

>  <mw>  (88) 
437.592

>  <logp>  (88) 
3.229

>  <tpsa>  (88) 
100.94

>  <hbd>  (88) 
2

>  <hba>  (88) 
6

>  <rotatable_bonds>  (88) 
2

>  <qed>  (88) 
0.7481

>  <sa_score>  (88) 
4.437

>  <murcko_scaffold>  (88) 
c1nc(N2CCCCCNCCCCC[C@@H]3CCNC[C@@H]32)c2cc[nH]c2n1

>  <max_ring_size>  (88) 
14

>  <has_macrocycle_12_20>  (88) 
True

>  <has_constrained_ring_8_11>  (88) 
False

>  <passes_basic_filters>  (88) 
True

>  <generation_notes>  (88) 
macrocycle_bridge_aza_path4_ring13

>  <best_score>  (88) 
nan

>  <qed_admet>  (88) 
0.7481

>  <sa_score_admet>  (88) 
4.437

>  <mw_admet>  (88) 
437.592

>  <logp_admet>  (88) 
3.229

>  <tpsa_admet>  (88) 
100.94

>  <hbd_admet>  (88) 
2

>  <hba_admet>  (88) 
6

>  <rotatable_bonds_admet>  (88) 
2

>  <lipinski_violations>  (88) 
0

>  <veber_pass>  (88) 
True

>  <admet_score>  (88) 
0.886645

>  <synthesis_score>  (88) 
0.618111

>  <safety_proxy_score>  (88) 
1.0

>  <main_risk>  (88) 
no_major_descriptor_risk

>  <pose_score>  (88) 
0.5

>  <pose_decision>  (88) 
nan

>  <contacts_within_4A>  (88) 
nan

>  <hard_clashes_lt_1_8A>  (88) 
nan

>  <smiles>  (88) 
N#CCC(=O)N1CC[C@H]2CCCCCNCCCCCN(c3ncnc4[nH]ccc34)[C@H]2C1

>  <docking_score>  (88) 
nan

>  <diversity_cluster>  (88) 
scaffold_05c0483e

>  <docking_score_scaled>  (88) 
0.0

>  <novelty_score>  (88) 
1.0

>  <final_weighted_score>  (88) 
0.495046

>  <rank>  (88) 
1362

>  <decision>  (88) 
await_docking

>  <diverse_rank>  (88) 
909

>  <selection_tier>  (88) 
await_docking

$$$$
CAND_1b74ae5153
     RDKit          3D

 45 45  0  0  0  0  0  0  0  0999 V2000
   -0.6249   -1.3289    2.7838 C   0  0  0  0  0  0  0  0  0  0  0  0
   -0.6237   -1.7891    1.5203 C   0  0  0  0  0  0  0  0  0  0  0  0
   -1.6919   -2.6966    1.1008 C   0  0  0  0  0  0  0  0  0  0  0  0
   -2.9269   -2.3494    0.6935 C   0  0  0  0  0  0  0  0  0  0  0  0
   -3.3836   -0.9848    0.6246 C   0  0  0  0  0  0  0  0  0  0  0  0
   -4.3863   -0.5208   -0.1403 C   0  0  0  0  0  0  0  0  0  0  0  0
   -4.6227    0.9633   -0.3656 C   0  0  2  0  0  0  0  0  0  0  0  0
   -5.3198    1.2171   -1.6994 C   0  0  0  0  0  0  0  0  0  0  0  0
   -3.3196    1.6147   -0.3981 N   0  0  0  0  0  0  0  0  0  0  0  0
   -2.8520    2.5713    0.4659 C   0  0  0  0  0  0  0  0  0  0  0  0
   -1.6047    2.6840    0.9441 C   0  0  0  0  0  0  0  0  0  0  0  0
   -0.5321    1.6774    0.6967 C   0  0  0  0  0  0  0  0  0  0  0  0
   -0.6468    0.6652   -0.1044 N   0  0  0  0  0  0  0  0  0  0  0  0
    0.4367   -0.1867   -0.1371 C   0  0  0  0  0  0  0  0  0  0  0  0
    1.4658    0.1244   -1.0076 N   0  0  0  0  0  0  0  0  0  0  0  0
    2.7142   -0.3967   -1.2017 C   0  0  0  0  0  0  0  0  0  0  0  0
    3.3198   -1.3086   -0.5260 N   0  0  0  0  0  0  0  0  0  0  0  0
    4.6666   -1.6197   -1.0134 C   0  0  0  0  0  0  0  0  0  0  0  0
    5.6317   -0.7446   -0.2552 C   0  0  0  0  0  0  0  0  0  0  0  0
    6.2721    0.2068   -0.8529 N   0  0  0  0  0  0  0  0  0  0  0  0
    7.0942    0.9482   -0.0640 C   0  0  0  0  0  0  0  0  0  0  0  0
    7.7574    1.8756   -0.6530 N   0  0  0  0  0  0  0  0  0  0  0  0
    0.4147   -1.3224    0.6023 C   0  0  0  0  0  0  0  0  0  0  0  0
    0.1351   -0.6410    3.1392 H   0  0  0  0  0  0  0  0  0  0  0  0
   -1.3894   -1.6283    3.4943 H   0  0  0  0  0  0  0  0  0  0  0  0
   -1.4117   -3.7479    1.0837 H   0  0  0  0  0  0  0  0  0  0  0  0
   -3.6048   -3.1242    0.3460 H   0  0  0  0  0  0  0  0  0  0  0  0
   -2.7895   -0.2642    1.1813 H   0  0  0  0  0  0  0  0  0  0  0  0
   -4.9951   -1.2139   -0.7134 H   0  0  0  0  0  0  0  0  0  0  0  0
   -5.2478    1.3541    0.4463 H   0  0  0  0  0  0  0  0  0  0  0  0
   -4.7335    0.8316   -2.5420 H   0  0  0  0  0  0  0  0  0  0  0  0
   -5.4627    2.2912   -1.8627 H   0  0  0  0  0  0  0  0  0  0  0  0
   -6.3049    0.7387   -1.7254 H   0  0  0  0  0  0  0  0  0  0  0  0
   -2.5707    1.0321   -0.7940 H   0  0  0  0  0  0  0  0  0  0  0  0
   -3.6187    3.2767    0.7789 H   0  0  0  0  0  0  0  0  0  0  0  0
   -1.3487    3.4840    1.6286 H   0  0  0  0  0  0  0  0  0  0  0  0
    0.3879    1.8504    1.2872 H   0  0  0  0  0  0  0  0  0  0  0  0
    1.1800    0.8812   -1.6180 H   0  0  0  0  0  0  0  0  0  0  0  0
    3.2069    0.0998   -2.0591 H   0  0  0  0  0  0  0  0  0  0  0  0
    4.7783   -1.4765   -2.0942 H   0  0  0  0  0  0  0  0  0  0  0  0
    4.8970   -2.6644   -0.7835 H   0  0  0  0  0  0  0  0  0  0  0  0
    5.7331   -0.9509    0.8264 H   0  0  0  0  0  0  0  0  0  0  0  0
    7.1964    0.7777    1.0213 H   0  0  0  0  0  0  0  0  0  0  0  0
    7.4817    1.8164   -1.6407 H   0  0  0  0  0  0  0  0  0  0  0  0
    1.2427   -2.0222    0.5275 H   0  0  0  0  0  0  0  0  0  0  0  0
  1  2  2  0
  2  3  1  0
  3  4  2  3
  4  5  1  0
  5  6  2  3
  6  7  1  0
  7  8  1  0
  7  9  1  0
  9 10  1  0
 10 11  2  3
 11 12  1  0
 12 13  2  3
 13 14  1  0
 14 15  1  0
 15 16  1  0
 16 17  2  3
 17 18  1  0
 18 19  1  0
 19 20  2  3
 20 21  1  0
 21 22  2  3
 14 23  2  3
 23  2  1  0
  1 24  1  0
  1 25  1  0
  3 26  1  0
  4 27  1  0
  5 28  1  0
  6 29  1  0
  7 30  1  1
  8 31  1  0
  8 32  1  0
  8 33  1  0
  9 34  1  0
 10 35  1  0
 11 36  1  0
 12 37  1  0
 15 38  1  0
 16 39  1  0
 18 40  1  0
 18 41  1  0
 19 42  1  0
 21 43  1  0
 22 44  1  0
 23 45  1  0
M  END
>  <candidate_id>  (89) 
CAND_1b74ae5153

>  <source_generator>  (89) 
selfies

>  <parent_mol_id>  (89) 
JAK2_efc2226329

>  <canonical_smiles>  (89) 
C=C1C=CC=C[C@H](C)NC=CC=NC(NC=NCC=NC=N)=C1

>  <inchikey>  (89) 
KTGKPPNNDSRAJX-INIZCTEOSA-N

>  <valid_rdkit>  (89) 
True

>  <unique_flag>  (89) 
True

>  <novel_flag>  (89) 
True

>  <mw>  (89) 
310.405

>  <logp>  (89) 
2.3684

>  <tpsa>  (89) 
84.99

>  <hbd>  (89) 
3

>  <hba>  (89) 
4

>  <rotatable_bonds>  (89) 
5

>  <qed>  (89) 
0.5377

>  <sa_score>  (89) 
3.325

>  <murcko_scaffold>  (89) 
C=C1C=CC=CCNC=CC=NC=C1

>  <max_ring_size>  (89) 
13

>  <has_macrocycle_12_20>  (89) 
True

>  <has_constrained_ring_8_11>  (89) 
False

>  <passes_basic_filters>  (89) 
True

>  <generation_notes>  (89) 
selfies_token_mutation

>  <best_score>  (89) 
nan

>  <qed_admet>  (89) 
0.5377

>  <sa_score_admet>  (89) 
3.325

>  <mw_admet>  (89) 
310.405

>  <logp_admet>  (89) 
2.3684

>  <tpsa_admet>  (89) 
84.99

>  <hbd_admet>  (89) 
3

>  <hba_admet>  (89) 
4

>  <rotatable_bonds_admet>  (89) 
5

>  <lipinski_violations>  (89) 
0

>  <veber_pass>  (89) 
True

>  <admet_score>  (89) 
0.791965

>  <synthesis_score>  (89) 
0.741667

>  <safety_proxy_score>  (89) 
1.0

>  <main_risk>  (89) 
no_major_descriptor_risk

>  <pose_score>  (89) 
0.5

>  <pose_decision>  (89) 
nan

>  <contacts_within_4A>  (89) 
nan

>  <hard_clashes_lt_1_8A>  (89) 
nan

>  <smiles>  (89) 
C=C1C=CC=C[C@H](C)NC=CC=NC(NC=NCC=NC=N)=C1

>  <docking_score>  (89) 
nan

>  <diversity_cluster>  (89) 
scaffold_13d40f17

>  <docking_score_scaled>  (89) 
0.0

>  <novelty_score>  (89) 
1.0

>  <final_weighted_score>  (89) 
0.494643

>  <rank>  (89) 
1391

>  <decision>  (89) 
await_docking

>  <diverse_rank>  (89) 
917

>  <selection_tier>  (89) 
await_docking

$$$$
CAND_a3a9fadba1
     RDKit          3D

 60 63  0  0  0  0  0  0  0  0999 V2000
    1.4691    0.4092    1.9783 C   0  0  0  0  0  0  0  0  0  0  0  0
    0.6385    0.2200    0.6998 C   0  0  2  0  0  0  0  0  0  0  0  0
    0.7381   -1.2021    0.0804 C   0  0  0  0  0  0  0  0  0  0  0  0
    0.6044   -2.3276    1.1240 C   0  0  0  0  0  0  0  0  0  0  0  0
    0.2366   -3.7005    0.5341 C   0  0  0  0  0  0  0  0  0  0  0  0
   -1.2596   -4.0371    0.5637 C   0  0  0  0  0  0  0  0  0  0  0  0
   -2.2492   -3.1857   -0.7137 S   0  0  0  0  0  0  0  0  0  0  0  0
   -3.3404   -2.1899    0.3571 C   0  0  0  0  0  0  0  0  0  0  0  0
   -4.5472   -1.6051   -0.3894 C   0  0  0  0  0  0  0  0  0  0  0  0
   -4.2432   -0.5947   -1.5026 C   0  0  0  0  0  0  0  0  0  0  0  0
   -3.5127    0.6059   -1.0033 C   0  0  0  0  0  0  0  0  0  0  0  0
   -2.1766    0.9412   -1.1061 C   0  0  0  0  0  0  0  0  0  0  0  0
   -1.9316    2.1138   -0.3283 C   0  0  0  0  0  0  0  0  0  0  0  0
   -0.8128    2.8891    0.0850 C   0  0  0  0  0  0  0  0  0  0  0  0
   -1.1030    4.0091    0.8149 N   0  0  0  0  0  0  0  0  0  0  0  0
   -2.3760    4.2993    1.1408 C   0  0  0  0  0  0  0  0  0  0  0  0
   -3.4795    3.6032    0.8465 N   0  0  0  0  0  0  0  0  0  0  0  0
   -3.1851    2.5239    0.1114 C   0  0  0  0  0  0  0  0  0  0  0  0
   -4.1221    1.6199   -0.3096 N   0  0  0  0  0  0  0  0  0  0  0  0
    0.5392    2.6029   -0.1499 N   0  0  0  0  0  0  0  0  0  0  0  0
    1.4649    3.6715    0.2055 C   0  0  0  0  0  0  0  0  0  0  0  0
    0.9981    1.2290   -0.4245 C   0  0  1  0  0  0  0  0  0  0  0  0
    2.5043    1.0753   -0.7407 C   0  0  0  0  0  0  0  0  0  0  0  0
    2.9706   -0.3230   -0.7605 N   0  0  0  0  0  0  0  0  0  0  0  0
    4.3210   -0.6834   -0.8417 C   0  0  0  0  0  0  0  0  0  0  0  0
    4.6689   -1.8611   -0.9227 O   0  0  0  0  0  0  0  0  0  0  0  0
    5.3315    0.4478   -0.8034 C   0  0  0  0  0  0  0  0  0  0  0  0
    6.6999   -0.0122   -1.0541 C   0  0  0  0  0  0  0  0  0  0  0  0
    7.8074   -0.3011   -1.2502 N   0  0  0  0  0  0  0  0  0  0  0  0
    1.9609   -1.3809   -0.8546 C   0  0  0  0  0  0  0  0  0  0  0  0
    1.0600   -0.1909    2.7978 H   0  0  0  0  0  0  0  0  0  0  0  0
    2.5146    0.1150    1.8524 H   0  0  0  0  0  0  0  0  0  0  0  0
    1.4451    1.4514    2.3104 H   0  0  0  0  0  0  0  0  0  0  0  0
   -0.4029    0.3513    1.0122 H   0  0  0  0  0  0  0  0  0  0  0  0
   -0.1331   -1.2944   -0.5767 H   0  0  0  0  0  0  0  0  0  0  0  0
    1.5630   -2.4260    1.6498 H   0  0  0  0  0  0  0  0  0  0  0  0
   -0.1403   -2.0540    1.8811 H   0  0  0  0  0  0  0  0  0  0  0  0
    0.7338   -4.4554    1.1583 H   0  0  0  0  0  0  0  0  0  0  0  0
    0.6423   -3.8338   -0.4749 H   0  0  0  0  0  0  0  0  0  0  0  0
   -1.3732   -5.1092    0.3679 H   0  0  0  0  0  0  0  0  0  0  0  0
   -1.6725   -3.8567    1.5615 H   0  0  0  0  0  0  0  0  0  0  0  0
   -3.7233   -2.8400    1.1513 H   0  0  0  0  0  0  0  0  0  0  0  0
   -2.7496   -1.4007    0.8317 H   0  0  0  0  0  0  0  0  0  0  0  0
   -5.1391   -2.4255   -0.8158 H   0  0  0  0  0  0  0  0  0  0  0  0
   -5.1956   -1.1229    0.3545 H   0  0  0  0  0  0  0  0  0  0  0  0
   -3.6697   -1.0713   -2.3058 H   0  0  0  0  0  0  0  0  0  0  0  0
   -5.1898   -0.2733   -1.9555 H   0  0  0  0  0  0  0  0  0  0  0  0
   -1.4570    0.3422   -1.6429 H   0  0  0  0  0  0  0  0  0  0  0  0
   -2.5215    5.2053    1.7206 H   0  0  0  0  0  0  0  0  0  0  0  0
   -5.1047    1.6934   -0.0890 H   0  0  0  0  0  0  0  0  0  0  0  0
    1.0804    4.6611   -0.0713 H   0  0  0  0  0  0  0  0  0  0  0  0
    1.6771    3.6620    1.2796 H   0  0  0  0  0  0  0  0  0  0  0  0
    2.4126    3.5876   -0.3335 H   0  0  0  0  0  0  0  0  0  0  0  0
    0.5016    0.9232   -1.3508 H   0  0  0  0  0  0  0  0  0  0  0  0
    2.7284    1.5168   -1.7190 H   0  0  0  0  0  0  0  0  0  0  0  0
    3.1155    1.6002   -0.0003 H   0  0  0  0  0  0  0  0  0  0  0  0
    5.2821    0.9204    0.1834 H   0  0  0  0  0  0  0  0  0  0  0  0
    5.0655    1.1946   -1.5584 H   0  0  0  0  0  0  0  0  0  0  0  0
    1.6154   -1.3641   -1.8969 H   0  0  0  0  0  0  0  0  0  0  0  0
    2.4204   -2.3630   -0.7082 H   0  0  0  0  0  0  0  0  0  0  0  0
  1  2  1  0
  2  3  1  0
  3  4  1  0
  4  5  1  0
  5  6  1  0
  6  7  1  0
  7  8  1  0
  8  9  1  0
  9 10  1  0
 10 11  1  0
 11 12  2  0
 12 13  1  0
 13 14  2  0
 14 15  1  0
 15 16  2  0
 16 17  1  0
 17 18  2  0
 18 19  1  0
 14 20  1  0
 20 21  1  0
 20 22  1  0
 22 23  1  0
 23 24  1  0
 24 25  1  0
 25 26  2  0
 25 27  1  0
 27 28  1  0
 28 29  3  0
 24 30  1  0
 22  2  1  0
 30  3  1  0
 19 11  1  0
 18 13  1  0
  1 31  1  0
  1 32  1  0
  1 33  1  0
  2 34  1  1
  3 35  1  0
  4 36  1  0
  4 37  1  0
  5 38  1  0
  5 39  1  0
  6 40  1  0
  6 41  1  0
  8 42  1  0
  8 43  1  0
  9 44  1  0
  9 45  1  0
 10 46  1  0
 10 47  1  0
 12 48  1  0
 16 49  1  0
 19 50  1  0
 21 51  1  0
 21 52  1  0
 21 53  1  0
 22 54  1  6
 23 55  1  0
 23 56  1  0
 27 57  1  0
 27 58  1  0
 30 59  1  0
 30 60  1  0
M  END
>  <candidate_id>  (90) 
CAND_a3a9fadba1

>  <source_generator>  (90) 
macrocycle_linker

>  <parent_mol_id>  (90) 
JAK2_3f3d946705

>  <canonical_smiles>  (90) 
C[C@@H]1C2CCCSCCCc3cc4c(ncnc4[nH]3)N(C)[C@H]1CN(C(=O)CC#N)C2

>  <inchikey>  (90) 
JMDSGRUTWKVOGC-LQUOLJLFSA-N

>  <valid_rdkit>  (90) 
True

>  <unique_flag>  (90) 
True

>  <novel_flag>  (90) 
True

>  <mw>  (90) 
426.59

>  <logp>  (90) 
3.2305

>  <tpsa>  (90) 
88.91

>  <hbd>  (90) 
1

>  <hba>  (90) 
6

>  <rotatable_bonds>  (90) 
1

>  <qed>  (90) 
0.7531

>  <sa_score>  (90) 
4.501

>  <murcko_scaffold>  (90) 
c1nc2c3cc([nH]c3n1)CCCSCCCC1CNC[C@@H](C1)N2

>  <max_ring_size>  (90) 
15

>  <has_macrocycle_12_20>  (90) 
True

>  <has_constrained_ring_8_11>  (90) 
False

>  <passes_basic_filters>  (90) 
True

>  <generation_notes>  (90) 
macrocycle_bridge_thioether_path7_ring14

>  <best_score>  (90) 
nan

>  <qed_admet>  (90) 
0.7531

>  <sa_score_admet>  (90) 
4.501

>  <mw_admet>  (90) 
426.59

>  <logp_admet>  (90) 
3.2305

>  <tpsa_admet>  (90) 
88.91

>  <hbd_admet>  (90) 
1

>  <hba_admet>  (90) 
6

>  <rotatable_bonds_admet>  (90) 
1

>  <lipinski_violations>  (90) 
0

>  <veber_pass>  (90) 
True

>  <admet_score>  (90) 
0.888895

>  <synthesis_score>  (90) 
0.611

>  <safety_proxy_score>  (90) 
1.0

>  <main_risk>  (90) 
no_major_descriptor_risk

>  <pose_score>  (90) 
0.5

>  <pose_decision>  (90) 
nan

>  <contacts_within_4A>  (90) 
nan

>  <hard_clashes_lt_1_8A>  (90) 
nan

>  <smiles>  (90) 
C[C@@H]1C2CCCSCCCc3cc4c(ncnc4[nH]3)N(C)[C@H]1CN(C(=O)CC#N)C2

>  <docking_score>  (90) 
nan

>  <diversity_cluster>  (90) 
scaffold_10d6a5d6

>  <docking_score_scaled>  (90) 
0.0

>  <novelty_score>  (90) 
1.0

>  <final_weighted_score>  (90) 
0.494429

>  <rank>  (90) 
1405

>  <decision>  (90) 
await_docking

>  <diverse_rank>  (90) 
929

>  <selection_tier>  (90) 
await_docking

$$$$
CAND_38659e93bf
     RDKit          3D

 57 59  0  0  0  0  0  0  0  0999 V2000
   -3.8541   -0.5094   -3.3231 C   0  0  0  0  0  0  0  0  0  0  0  0
   -4.0156   -0.0383   -1.8808 C   0  0  2  0  0  0  0  0  0  0  0  0
   -3.2407   -0.8837   -0.9941 N   0  0  0  0  0  0  0  0  0  0  0  0
   -1.8939   -0.7229   -0.7396 C   0  0  0  0  0  0  0  0  0  0  0  0
   -1.2572    0.2848   -1.2867 N   0  0  0  0  0  0  0  0  0  0  0  0
    0.0791    0.4729   -1.0504 C   0  0  0  0  0  0  0  0  0  0  0  0
    0.6076    1.6385   -0.6301 C   0  0  0  0  0  0  0  0  0  0  0  0
   -0.2348    2.8874   -0.5211 C   0  0  0  0  0  0  0  0  0  0  0  0
   -0.7962    3.0713    0.8107 N   0  0  0  0  0  0  0  0  0  0  0  0
    0.4999    4.0034   -0.7785 F   0  0  0  0  0  0  0  0  0  0  0  0
    1.9768    1.6845   -0.3520 O   0  0  0  0  0  0  0  0  0  0  0  0
    2.3784    2.5500    0.7169 C   0  0  0  0  0  0  0  0  0  0  0  0
    3.6668    2.1206    1.2708 N   0  0  0  0  0  0  0  0  0  0  0  0
    3.5399    1.1349    2.3549 C   0  0  0  0  0  0  0  0  0  0  0  0
    2.8857   -0.1703    1.9511 C   0  0  0  0  0  0  0  0  0  0  0  0
    3.7349   -1.0378    1.2024 C   0  0  0  0  0  0  0  0  0  0  0  0
    3.9465   -1.0981   -0.1892 C   0  0  0  0  0  0  0  0  0  0  0  0
    4.8135   -2.0587   -0.5254 N   0  0  0  0  0  0  0  0  0  0  0  0
    5.1580   -2.6030    0.6575 N   0  0  0  0  0  0  0  0  0  0  0  0
    6.1043   -3.6909    0.6879 C   0  0  0  0  0  0  0  0  0  0  0  0
    4.5333   -2.0280    1.7263 C   0  0  0  0  0  0  0  0  0  0  0  0
    1.5793   -0.3838    2.2108 C   0  0  0  0  0  0  0  0  0  0  0  0
    0.7757   -1.3826    1.5409 C   0  0  0  0  0  0  0  0  0  0  0  0
   -0.5354   -1.1674    1.3425 C   0  0  0  0  0  0  0  0  0  0  0  0
   -1.2725   -1.7975    0.1971 C   0  0  0  0  0  0  0  0  0  0  0  0
   -5.4618   -0.1218   -1.4565 C   0  0  0  0  0  0  0  0  0  0  0  0
   -6.3724    1.0731   -1.5964 C   0  0  0  0  0  0  0  0  0  0  0  0
   -5.9384    0.6185   -0.2305 C   0  0  0  0  0  0  0  0  0  0  0  0
   -2.8104   -0.4446   -3.6473 H   0  0  0  0  0  0  0  0  0  0  0  0
   -4.4591    0.1015   -4.0013 H   0  0  0  0  0  0  0  0  0  0  0  0
   -4.1732   -1.5516   -3.4404 H   0  0  0  0  0  0  0  0  0  0  0  0
   -3.6787    1.0028   -1.8014 H   0  0  0  0  0  0  0  0  0  0  0  0
   -3.7294   -1.6709   -0.5866 H   0  0  0  0  0  0  0  0  0  0  0  0
    0.7377   -0.3824   -1.1869 H   0  0  0  0  0  0  0  0  0  0  0  0
   -1.0437    2.8848   -1.2595 H   0  0  0  0  0  0  0  0  0  0  0  0
   -1.2512    3.9803    0.8048 H   0  0  0  0  0  0  0  0  0  0  0  0
   -1.5333    2.3753    0.9057 H   0  0  0  0  0  0  0  0  0  0  0  0
    2.5224    3.5523    0.3017 H   0  0  0  0  0  0  0  0  0  0  0  0
    1.6315    2.6124    1.5143 H   0  0  0  0  0  0  0  0  0  0  0  0
    4.2000    1.7130    0.5059 H   0  0  0  0  0  0  0  0  0  0  0  0
    4.5424    0.9346    2.7547 H   0  0  0  0  0  0  0  0  0  0  0  0
    2.9968    1.5968    3.1902 H   0  0  0  0  0  0  0  0  0  0  0  0
    3.5053   -0.4905   -0.9691 H   0  0  0  0  0  0  0  0  0  0  0  0
    5.7263   -4.4962    0.0528 H   0  0  0  0  0  0  0  0  0  0  0  0
    7.0625   -3.3231    0.3131 H   0  0  0  0  0  0  0  0  0  0  0  0
    6.2157   -4.0479    1.7146 H   0  0  0  0  0  0  0  0  0  0  0  0
    4.7041   -2.3620    2.7397 H   0  0  0  0  0  0  0  0  0  0  0  0
    1.0329    0.3719    2.7743 H   0  0  0  0  0  0  0  0  0  0  0  0
    1.2903   -2.1528    0.9700 H   0  0  0  0  0  0  0  0  0  0  0  0
   -1.0470   -0.3522    1.8500 H   0  0  0  0  0  0  0  0  0  0  0  0
   -2.0660   -2.4364    0.5998 H   0  0  0  0  0  0  0  0  0  0  0  0
   -0.6214   -2.4310   -0.4167 H   0  0  0  0  0  0  0  0  0  0  0  0
   -5.8938   -1.0992   -1.6452 H   0  0  0  0  0  0  0  0  0  0  0  0
   -5.9622    2.0025   -1.9758 H   0  0  0  0  0  0  0  0  0  0  0  0
   -7.4018    0.8955   -1.8871 H   0  0  0  0  0  0  0  0  0  0  0  0
   -6.6745    0.1351    0.4014 H   0  0  0  0  0  0  0  0  0  0  0  0
   -5.2289    1.2364    0.3089 H   0  0  0  0  0  0  0  0  0  0  0  0
  1  2  1  0
  2  3  1  0
  3  4  1  0
  4  5  2  3
  5  6  1  0
  6  7  2  3
  7  8  1  0
  8  9  1  0
  8 10  1  0
  7 11  1  0
 11 12  1  0
 12 13  1  0
 13 14  1  0
 14 15  1  0
 15 16  1  0
 16 17  1  0
 17 18  2  0
 18 19  1  0
 19 20  1  0
 19 21  1  0
 15 22  2  3
 22 23  1  0
 23 24  2  3
 24 25  1  0
  2 26  1  0
 26 27  1  0
 27 28  1  0
 25  4  1  0
 28 26  1  0
 21 16  2  0
  1 29  1  0
  1 30  1  0
  1 31  1  0
  2 32  1  6
  3 33  1  0
  6 34  1  0
  8 35  1  0
  9 36  1  0
  9 37  1  0
 12 38  1  0
 12 39  1  0
 13 40  1  0
 14 41  1  0
 14 42  1  0
 17 43  1  0
 20 44  1  0
 20 45  1  0
 20 46  1  0
 21 47  1  0
 22 48  1  0
 23 49  1  0
 24 50  1  0
 25 51  1  0
 25 52  1  0
 26 53  1  0
 27 54  1  0
 27 55  1  0
 28 56  1  0
 28 57  1  0
M  END
>  <candidate_id>  (91) 
CAND_38659e93bf

>  <source_generator>  (91) 
selfies

>  <parent_mol_id>  (91) 
JAK2_ec117125df

>  <canonical_smiles>  (91) 
C[C@H](NC1=NC=C(C(N)F)OCNCC(c2cnn(C)c2)=CC=CC1)C1CC1

>  <inchikey>  (91) 
FADJIUXSTPSZSI-PVCZSOGJSA-N

>  <valid_rdkit>  (91) 
True

>  <unique_flag>  (91) 
True

>  <novel_flag>  (91) 
True

>  <mw>  (91) 
388.491

>  <logp>  (91) 
2.2094

>  <tpsa>  (91) 
89.49

>  <hbd>  (91) 
3

>  <hba>  (91) 
6

>  <rotatable_bonds>  (91) 
4

>  <qed>  (91) 
0.6884

>  <sa_score>  (91) 
4.164

>  <murcko_scaffold>  (91) 
C1=CCC(NCC2CC2)=NC=COCNCC(c2cn[nH]c2)=C1

>  <max_ring_size>  (91) 
13

>  <has_macrocycle_12_20>  (91) 
True

>  <has_constrained_ring_8_11>  (91) 
False

>  <passes_basic_filters>  (91) 
True

>  <generation_notes>  (91) 
selfies_token_mutation

>  <best_score>  (91) 
nan

>  <qed_admet>  (91) 
0.6884

>  <sa_score_admet>  (91) 
4.164

>  <mw_admet>  (91) 
388.491

>  <logp_admet>  (91) 
2.2094

>  <tpsa_admet>  (91) 
89.49

>  <hbd_admet>  (91) 
3

>  <hba_admet>  (91) 
6

>  <rotatable_bonds_admet>  (91) 
4

>  <lipinski_violations>  (91) 
0

>  <veber_pass>  (91) 
True

>  <admet_score>  (91) 
0.85978

>  <synthesis_score>  (91) 
0.648444

>  <safety_proxy_score>  (91) 
1.0

>  <main_risk>  (91) 
no_major_descriptor_risk

>  <pose_score>  (91) 
0.5

>  <pose_decision>  (91) 
nan

>  <contacts_within_4A>  (91) 
nan

>  <hard_clashes_lt_1_8A>  (91) 
nan

>  <smiles>  (91) 
C[C@H](NC1=NC=C(C(N)F)OCNCC(c2cnn(C)c2)=CC=CC1)C1CC1

>  <docking_score>  (91) 
nan

>  <diversity_cluster>  (91) 
scaffold_c83e790c

>  <docking_score_scaled>  (91) 
0.0

>  <novelty_score>  (91) 
1.0

>  <final_weighted_score>  (91) 
0.494223

>  <rank>  (91) 
1420

>  <decision>  (91) 
await_docking

>  <diverse_rank>  (91) 
937

>  <selection_tier>  (91) 
await_docking

$$$$
CAND_9884448098
     RDKit          3D

 56 59  0  0  0  0  0  0  0  0999 V2000
    1.2577   -0.4389    1.5686 C   0  0  0  0  0  0  0  0  0  0  0  0
    1.8783   -0.2765    0.2578 N   0  0  0  0  0  0  0  0  0  0  0  0
    3.2721   -0.3822    0.2823 C   0  0  0  0  0  0  0  0  0  0  0  0
    3.8774   -1.3974   -0.3925 N   0  0  0  0  0  0  0  0  0  0  0  0
    5.2189   -1.5153   -0.3426 C   0  0  0  0  0  0  0  0  0  0  0  0
    6.0979   -0.7306    0.2991 N   0  0  0  0  0  0  0  0  0  0  0  0
    5.4744    0.2712    0.9333 C   0  0  0  0  0  0  0  0  0  0  0  0
    6.1123    1.2403    1.6581 N   0  0  0  0  0  0  0  0  0  0  0  0
    5.1940    2.1295    2.1536 C   0  0  0  0  0  0  0  0  0  0  0  0
    3.9459    1.7117    1.7409 C   0  0  0  0  0  0  0  0  0  0  0  0
    4.1102    0.5178    0.9767 C   0  0  0  0  0  0  0  0  0  0  0  0
    1.2021   -0.7489   -0.9669 C   0  0  1  0  0  0  0  0  0  0  0  0
    0.3529   -2.0462   -0.7876 C   0  0  0  0  0  0  0  0  0  0  0  0
   -1.0915   -1.7791   -0.8971 N   0  0  0  0  0  0  0  0  0  0  0  0
   -1.5095   -1.2053   -2.1833 C   0  0  0  0  0  0  0  0  0  0  0  0
   -0.4408   -0.2767   -2.7728 C   0  0  0  0  0  0  0  0  0  0  0  0
    0.3954    0.4027   -1.6683 C   0  0  1  0  0  0  0  0  0  0  0  0
   -0.4442    1.2561   -0.6862 C   0  0  0  0  0  0  0  0  0  0  0  0
   -1.4328    2.2564   -1.3066 C   0  0  0  0  0  0  0  0  0  0  0  0
   -2.5373    2.6010   -0.3023 C   0  0  0  0  0  0  0  0  0  0  0  0
   -3.3115    1.4162   -0.0870 O   0  0  0  0  0  0  0  0  0  0  0  0
   -4.0920    1.4796    1.0928 C   0  0  0  0  0  0  0  0  0  0  0  0
   -4.7411    0.1981    1.3330 N   0  0  0  0  0  0  0  0  0  0  0  0
   -3.7656   -0.9076    1.4827 C   0  0  0  0  0  0  0  0  0  0  0  0
   -3.3809   -1.6186    0.1614 C   0  0  0  0  0  0  0  0  0  0  0  0
   -4.1871   -2.8291   -0.0459 C   0  0  0  0  0  0  0  0  0  0  0  0
   -4.8487   -3.7618   -0.2489 N   0  0  0  0  0  0  0  0  0  0  0  0
   -1.9076   -2.0181    0.2071 C   0  0  0  0  0  0  0  0  0  0  0  0
   -1.4500   -2.5331    1.2335 O   0  0  0  0  0  0  0  0  0  0  0  0
    1.5016   -1.4165    2.0007 H   0  0  0  0  0  0  0  0  0  0  0  0
    0.1703   -0.3634    1.5167 H   0  0  0  0  0  0  0  0  0  0  0  0
    1.5798    0.3345    2.2717 H   0  0  0  0  0  0  0  0  0  0  0  0
    5.6400   -2.3521   -0.8913 H   0  0  0  0  0  0  0  0  0  0  0  0
    7.1136    1.2794    1.7811 H   0  0  0  0  0  0  0  0  0  0  0  0
    5.5063    2.9794    2.7456 H   0  0  0  0  0  0  0  0  0  0  0  0
    3.0113    2.2125    1.9552 H   0  0  0  0  0  0  0  0  0  0  0  0
    1.9652   -1.0225   -1.7100 H   0  0  0  0  0  0  0  0  0  0  0  0
    0.5899   -2.7434   -1.6025 H   0  0  0  0  0  0  0  0  0  0  0  0
    0.6038   -2.5750    0.1360 H   0  0  0  0  0  0  0  0  0  0  0  0
   -1.7029   -2.0388   -2.8677 H   0  0  0  0  0  0  0  0  0  0  0  0
   -2.4369   -0.6440   -2.0973 H   0  0  0  0  0  0  0  0  0  0  0  0
   -0.8987    0.4512   -3.4503 H   0  0  0  0  0  0  0  0  0  0  0  0
    0.2312   -0.8695   -3.4087 H   0  0  0  0  0  0  0  0  0  0  0  0
    1.1163    1.0781   -2.1484 H   0  0  0  0  0  0  0  0  0  0  0  0
   -0.9954    0.5980   -0.0132 H   0  0  0  0  0  0  0  0  0  0  0  0
    0.2374    1.8258   -0.0411 H   0  0  0  0  0  0  0  0  0  0  0  0
   -0.8974    3.1632   -1.6075 H   0  0  0  0  0  0  0  0  0  0  0  0
   -1.9120    1.8407   -2.1961 H   0  0  0  0  0  0  0  0  0  0  0  0
   -2.0945    2.9570    0.6353 H   0  0  0  0  0  0  0  0  0  0  0  0
   -3.1925    3.3791   -0.7071 H   0  0  0  0  0  0  0  0  0  0  0  0
   -3.4698    1.7474    1.9551 H   0  0  0  0  0  0  0  0  0  0  0  0
   -4.8574    2.2548    0.9774 H   0  0  0  0  0  0  0  0  0  0  0  0
   -5.3752    0.0102    0.5586 H   0  0  0  0  0  0  0  0  0  0  0  0
   -2.8775   -0.5266    2.0040 H   0  0  0  0  0  0  0  0  0  0  0  0
   -4.2174   -1.6313    2.1734 H   0  0  0  0  0  0  0  0  0  0  0  0
   -3.5878   -0.9435   -0.6624 H   0  0  0  0  0  0  0  0  0  0  0  0
  1  2  1  0
  2  3  1  0
  3  4  1  0
  4  5  2  0
  5  6  1  0
  6  7  2  0
  7  8  1  0
  8  9  1  0
  9 10  2  0
 10 11  1  0
  2 12  1  0
 12 13  1  0
 13 14  1  0
 14 15  1  0
 15 16  1  0
 16 17  1  0
 17 18  1  0
 18 19  1  0
 19 20  1  0
 20 21  1  0
 21 22  1  0
 22 23  1  0
 23 24  1  0
 24 25  1  0
 25 26  1  0
 26 27  3  0
 25 28  1  0
 28 29  2  0
 11  3  2  0
 17 12  1  0
 11  7  1  0
 28 14  1  0
  1 30  1  0
  1 31  1  0
  1 32  1  0
  5 33  1  0
  8 34  1  0
  9 35  1  0
 10 36  1  0
 12 37  1  6
 13 38  1  0
 13 39  1  0
 15 40  1  0
 15 41  1  0
 16 42  1  0
 16 43  1  0
 17 44  1  6
 18 45  1  0
 18 46  1  0
 19 47  1  0
 19 48  1  0
 20 49  1  0
 20 50  1  0
 22 51  1  0
 22 52  1  0
 23 53  1  0
 24 54  1  0
 24 55  1  0
 25 56  1  0
M  END
>  <candidate_id>  (92) 
CAND_9884448098

>  <source_generator>  (92) 
macrocycle_linker

>  <parent_mol_id>  (92) 
JAK2_3f3d946705

>  <canonical_smiles>  (92) 
CN(c1ncnc2[nH]ccc12)[C@H]1CN2CC[C@H]1CCCOCNCC(C#N)C2=O

>  <inchikey>  (92) 
VVMLKPRQNZMXGY-BZEOVNSFSA-N

>  <valid_rdkit>  (92) 
True

>  <unique_flag>  (92) 
True

>  <novel_flag>  (92) 
True

>  <mw>  (92) 
397.483

>  <logp>  (92) 
1.1085

>  <tpsa>  (92) 
110.17

>  <hbd>  (92) 
2

>  <hba>  (92) 
7

>  <rotatable_bonds>  (92) 
2

>  <qed>  (92) 
0.7809

>  <sa_score>  (92) 
4.664

>  <murcko_scaffold>  (92) 
O=C1CCNCOCCC[C@@H]2CCN1C[C@@H]2Nc1ncnc2[nH]ccc12

>  <max_ring_size>  (92) 
13

>  <has_macrocycle_12_20>  (92) 
True

>  <has_constrained_ring_8_11>  (92) 
False

>  <passes_basic_filters>  (92) 
True

>  <generation_notes>  (92) 
macrocycle_bridge_oxa_aza_path6_ring12

>  <best_score>  (92) 
nan

>  <qed_admet>  (92) 
0.7809

>  <sa_score_admet>  (92) 
4.664

>  <mw_admet>  (92) 
397.483

>  <logp_admet>  (92) 
1.1085

>  <tpsa_admet>  (92) 
110.17

>  <hbd_admet>  (92) 
2

>  <hba_admet>  (92) 
7

>  <rotatable_bonds_admet>  (92) 
2

>  <lipinski_violations>  (92) 
0

>  <veber_pass>  (92) 
True

>  <admet_score>  (92) 
0.901405

>  <synthesis_score>  (92) 
0.592889

>  <safety_proxy_score>  (92) 
1.0

>  <main_risk>  (92) 
no_major_descriptor_risk

>  <pose_score>  (92) 
0.5

>  <pose_decision>  (92) 
nan

>  <contacts_within_4A>  (92) 
nan

>  <hard_clashes_lt_1_8A>  (92) 
nan

>  <smiles>  (92) 
CN(c1ncnc2[nH]ccc12)[C@H]1CN2CC[C@H]1CCCOCNCC(C#N)C2=O

>  <docking_score>  (92) 
nan

>  <diversity_cluster>  (92) 
scaffold_75a67db4

>  <docking_score_scaled>  (92) 
0.0

>  <novelty_score>  (92) 
1.0

>  <final_weighted_score>  (92) 
0.494214

>  <rank>  (92) 
1421

>  <decision>  (92) 
await_docking

>  <diverse_rank>  (92) 
938

>  <selection_tier>  (92) 
await_docking

$$$$
CAND_2a7df84e67
     RDKit          3D

 50 52  0  0  0  0  0  0  0  0999 V2000
   -2.2550    4.0370    0.4596 C   0  0  0  0  0  0  0  0  0  0  0  0
   -3.0116    3.1775   -0.3969 O   0  0  0  0  0  0  0  0  0  0  0  0
   -3.0619    1.9064    0.1596 C   0  0  0  0  0  0  0  0  0  0  0  0
   -2.0920    0.9965   -0.0629 C   0  0  0  0  0  0  0  0  0  0  0  0
   -1.0155    1.3171   -0.8907 O   0  0  0  0  0  0  0  0  0  0  0  0
   -1.3788    1.2112   -2.2662 C   0  0  0  0  0  0  0  0  0  0  0  0
   -2.0459   -0.3898    0.5774 C   0  0  0  0  0  0  0  0  0  0  0  0
   -0.6628   -0.8714    0.7422 N   0  0  0  0  0  0  0  0  0  0  0  0
    0.2485   -0.1488    1.5266 C   0  0  0  0  0  0  0  0  0  0  0  0
    0.0293    0.9162    2.0929 O   0  0  0  0  0  0  0  0  0  0  0  0
    1.5895   -0.8228    1.6330 C   0  0  0  0  0  0  0  0  0  0  0  0
    2.6534   -0.0509    1.3471 C   0  0  0  0  0  0  0  0  0  0  0  0
    3.9558   -0.5568    0.9677 C   0  0  0  0  0  0  0  0  0  0  0  0
    4.4992   -0.4333   -0.2591 C   0  0  0  0  0  0  0  0  0  0  0  0
    3.9319    0.2299   -1.4402 C   0  0  0  0  0  0  0  0  0  0  0  0
    3.8848    1.5699   -1.5491 C   0  0  0  0  0  0  0  0  0  0  0  0
    4.5142    2.7033   -0.4237 Cl  0  0  0  0  0  0  0  0  0  0  0  0
    3.3823   -0.5411   -2.5635 C   0  0  0  0  0  0  0  0  0  0  0  0
    2.1674   -1.1153   -2.6373 C   0  0  0  0  0  0  0  0  0  0  0  0
    1.1810   -1.0233   -1.5899 C   0  0  0  0  0  0  0  0  0  0  0  0
    0.4072   -2.0498   -1.1996 C   0  0  0  0  0  0  0  0  0  0  0  0
   -0.3024   -2.1623    0.1375 C   0  0  0  0  0  0  0  0  0  0  0  0
    0.6067   -2.9170    1.0868 C   0  0  0  0  0  0  0  0  0  0  0  0
    1.5685   -2.2631    1.7573 C   0  0  0  0  0  0  0  0  0  0  0  0
   -2.7228   -0.5860    1.9186 C   0  0  0  0  0  0  0  0  0  0  0  0
   -3.5583    0.1976    2.6156 C   0  0  0  0  0  0  0  0  0  0  0  0
   -4.1622    1.3661    2.2646 O   0  0  0  0  0  0  0  0  0  0  0  0
   -4.3402    1.5785    0.8693 C   0  0  0  0  0  0  0  0  0  0  0  0
   -2.2671    5.0396    0.0223 H   0  0  0  0  0  0  0  0  0  0  0  0
   -2.7067    4.0940    1.4562 H   0  0  0  0  0  0  0  0  0  0  0  0
   -1.2121    3.7104    0.5316 H   0  0  0  0  0  0  0  0  0  0  0  0
   -0.4807    1.3858   -2.8658 H   0  0  0  0  0  0  0  0  0  0  0  0
   -1.7553    0.2086   -2.4967 H   0  0  0  0  0  0  0  0  0  0  0  0
   -2.1202    1.9660   -2.5459 H   0  0  0  0  0  0  0  0  0  0  0  0
   -2.5419   -1.0626   -0.1345 H   0  0  0  0  0  0  0  0  0  0  0  0
    2.5007    1.0174    1.1923 H   0  0  0  0  0  0  0  0  0  0  0  0
    4.5006   -1.1011    1.7356 H   0  0  0  0  0  0  0  0  0  0  0  0
    5.4724   -0.8890   -0.4357 H   0  0  0  0  0  0  0  0  0  0  0  0
    3.4560    2.0817   -2.4025 H   0  0  0  0  0  0  0  0  0  0  0  0
    4.0721   -0.6765   -3.3955 H   0  0  0  0  0  0  0  0  0  0  0  0
    1.9204   -1.7218   -3.5051 H   0  0  0  0  0  0  0  0  0  0  0  0
    1.2080   -0.1071   -1.0081 H   0  0  0  0  0  0  0  0  0  0  0  0
    0.4399   -2.9758   -1.7705 H   0  0  0  0  0  0  0  0  0  0  0  0
   -1.2206   -2.7480    0.0129 H   0  0  0  0  0  0  0  0  0  0  0  0
    0.5405   -3.9987    1.1249 H   0  0  0  0  0  0  0  0  0  0  0  0
    2.3136   -2.7671    2.3599 H   0  0  0  0  0  0  0  0  0  0  0  0
   -2.4099   -1.4927    2.4365 H   0  0  0  0  0  0  0  0  0  0  0  0
   -3.8370   -0.0465    3.6362 H   0  0  0  0  0  0  0  0  0  0  0  0
   -5.0408    2.4158    0.7663 H   0  0  0  0  0  0  0  0  0  0  0  0
   -4.8425    0.7168    0.4088 H   0  0  0  0  0  0  0  0  0  0  0  0
  1  2  1  0
  2  3  1  0
  3  4  2  0
  4  5  1  0
  5  6  1  0
  4  7  1  0
  7  8  1  0
  8  9  1  0
  9 10  2  0
  9 11  1  0
 11 12  2  3
 12 13  1  0
 13 14  2  3
 14 15  1  0
 15 16  2  3
 16 17  1  0
 15 18  1  0
 18 19  2  3
 19 20  1  0
 20 21  2  3
 21 22  1  0
 22 23  1  0
 23 24  2  0
  7 25  1  0
 25 26  2  0
 26 27  1  0
 27 28  1  0
 28  3  1  0
 22  8  1  0
 24 11  1  0
  1 29  1  0
  1 30  1  0
  1 31  1  0
  6 32  1  0
  6 33  1  0
  6 34  1  0
  7 35  1  0
 12 36  1  0
 13 37  1  0
 14 38  1  0
 16 39  1  0
 18 40  1  0
 19 41  1  0
 20 42  1  0
 21 43  1  0
 22 44  1  0
 23 45  1  0
 24 46  1  0
 25 47  1  0
 26 48  1  0
 28 49  1  0
 28 50  1  0
M  END
>  <candidate_id>  (93) 
CAND_2a7df84e67

>  <source_generator>  (93) 
selfies

>  <parent_mol_id>  (93) 
JAK2_8c93d98423

>  <canonical_smiles>  (93) 
COC1=C(OC)C(N2C(=O)C3=CC=CC(=CCl)C=CC=CC2C=C3)C=COC1

>  <inchikey>  (93) 
CIKRSWDOHQVIGK-UHFFFAOYSA-N

>  <valid_rdkit>  (93) 
True

>  <unique_flag>  (93) 
True

>  <novel_flag>  (93) 
True

>  <mw>  (93) 
399.874

>  <logp>  (93) 
3.9016

>  <tpsa>  (93) 
48.0

>  <hbd>  (93) 
0

>  <hba>  (93) 
4

>  <rotatable_bonds>  (93) 
3

>  <qed>  (93) 
0.7217

>  <sa_score>  (93) 
4.352

>  <murcko_scaffold>  (93) 
C=C1C=CC=CC2C=CC(=CC=C1)C(=O)N2C1C=CCOC=C1

>  <max_ring_size>  (93) 
12

>  <has_macrocycle_12_20>  (93) 
True

>  <has_constrained_ring_8_11>  (93) 
False

>  <passes_basic_filters>  (93) 
True

>  <generation_notes>  (93) 
selfies_token_mutation

>  <best_score>  (93) 
nan

>  <qed_admet>  (93) 
0.7217

>  <sa_score_admet>  (93) 
4.352

>  <mw_admet>  (93) 
399.874

>  <logp_admet>  (93) 
3.9016

>  <tpsa_admet>  (93) 
48.0

>  <hbd_admet>  (93) 
0

>  <hba_admet>  (93) 
4

>  <rotatable_bonds_admet>  (93) 
3

>  <lipinski_violations>  (93) 
0

>  <veber_pass>  (93) 
True

>  <admet_score>  (93) 
0.874765

>  <synthesis_score>  (93) 
0.627556

>  <safety_proxy_score>  (93) 
1.0

>  <main_risk>  (93) 
no_major_descriptor_risk

>  <pose_score>  (93) 
0.5

>  <pose_decision>  (93) 
nan

>  <contacts_within_4A>  (93) 
nan

>  <hard_clashes_lt_1_8A>  (93) 
nan

>  <smiles>  (93) 
COC1=C(OC)C(N2C(=O)C3=CC=CC(=CCl)C=CC=CC2C=C3)C=COC1

>  <docking_score>  (93) 
nan

>  <diversity_cluster>  (93) 
scaffold_8cdef715

>  <docking_score_scaled>  (93) 
0.0

>  <novelty_score>  (93) 
1.0

>  <final_weighted_score>  (93) 
0.494086

>  <rank>  (93) 
1424

>  <decision>  (93) 
await_docking

>  <diverse_rank>  (93) 
941

>  <selection_tier>  (93) 
await_docking

$$$$
CAND_bf1bed9cef
     RDKit          3D

 57 57  0  0  0  0  0  0  0  0999 V2000
   -7.1977   -0.3486   -0.1527 C   0  0  0  0  0  0  0  0  0  0  0  0
   -6.0030    0.5451    0.1422 C   0  0  0  0  0  0  0  0  0  0  0  0
   -4.6906   -0.1175   -0.2848 C   0  0  0  0  0  0  0  0  0  0  0  0
   -3.4887    0.7720   -0.0237 C   0  0  0  0  0  0  0  0  0  0  0  0
   -2.8145    1.3655   -1.0265 C   0  0  0  0  0  0  0  0  0  0  0  0
   -3.1160    1.2390   -2.3548 N   0  0  0  0  0  0  0  0  0  0  0  0
   -2.2199    0.6805   -3.1039 C   0  0  0  0  0  0  0  0  0  0  0  0
   -1.0209    0.1096   -2.7642 N   0  0  0  0  0  0  0  0  0  0  0  0
   -0.0463   -0.4131   -3.5752 C   0  0  0  0  0  0  0  0  0  0  0  0
    1.1266   -0.9675   -3.2370 C   0  0  0  0  0  0  0  0  0  0  0  0
    1.6321   -1.1257   -1.8542 C   0  0  0  0  0  0  0  0  0  0  0  0
    2.3104   -2.0965   -1.5391 O   0  0  0  0  0  0  0  0  0  0  0  0
    1.3614   -0.0837   -1.0088 N   0  0  0  0  0  0  0  0  0  0  0  0
    1.7564   -0.1032    0.4034 C   0  0  1  0  0  0  0  0  0  0  0  0
    3.2092    0.4117    0.5107 C   0  0  0  0  0  0  0  0  0  0  0  0
    3.5104    1.4882    1.0195 O   0  0  0  0  0  0  0  0  0  0  0  0
    4.1456   -0.4506   -0.0236 N   0  0  0  0  0  0  0  0  0  0  0  0
    5.5600   -0.1475   -0.0336 C   0  0  0  0  0  0  0  0  0  0  0  0
    6.2126   -0.4100    1.3246 C   0  0  0  0  0  0  0  0  0  0  0  0
    7.6623   -0.0507    1.3175 C   0  0  0  0  0  3  0  0  0  0  0  0
    8.6842   -1.0279    1.3795 C   0  0  0  0  0  0  0  0  0  0  0  0
    9.5212   -1.8278    1.4287 N   0  0  0  0  0  0  0  0  0  0  0  0
    0.7929    0.7492    1.2471 C   0  0  0  0  0  0  0  0  0  0  0  0
   -0.6359    0.1627    1.3318 C   0  0  0  0  0  0  0  0  0  0  0  0
   -0.6857   -1.0379    2.2834 C   0  0  0  0  0  0  0  0  0  0  0  0
   -1.6383    1.2569    1.7696 C   0  0  0  0  0  0  0  0  0  0  0  0
   -3.1091    0.9293    1.4434 C   0  0  0  0  0  0  0  0  0  0  0  0
   -7.1216   -1.2950    0.3921 H   0  0  0  0  0  0  0  0  0  0  0  0
   -8.1252    0.1458    0.1527 H   0  0  0  0  0  0  0  0  0  0  0  0
   -7.2679   -0.5715   -1.2221 H   0  0  0  0  0  0  0  0  0  0  0  0
   -6.1298    1.4993   -0.3840 H   0  0  0  0  0  0  0  0  0  0  0  0
   -5.9860    0.7699    1.2150 H   0  0  0  0  0  0  0  0  0  0  0  0
   -4.7569   -0.3912   -1.3448 H   0  0  0  0  0  0  0  0  0  0  0  0
   -4.5561   -1.0649    0.2525 H   0  0  0  0  0  0  0  0  0  0  0  0
   -1.9865    2.0366   -0.8100 H   0  0  0  0  0  0  0  0  0  0  0  0
   -2.4217    0.6325   -4.1885 H   0  0  0  0  0  0  0  0  0  0  0  0
   -0.8646   -0.0043   -1.7691 H   0  0  0  0  0  0  0  0  0  0  0  0
   -0.3120   -0.3715   -4.6310 H   0  0  0  0  0  0  0  0  0  0  0  0
    1.7624   -1.4082   -3.9987 H   0  0  0  0  0  0  0  0  0  0  0  0
    1.0554    0.7975   -1.4062 H   0  0  0  0  0  0  0  0  0  0  0  0
    1.7568   -1.1403    0.7573 H   0  0  0  0  0  0  0  0  0  0  0  0
    3.8098   -1.2996   -0.4827 H   0  0  0  0  0  0  0  0  0  0  0  0
    6.0180   -0.7715   -0.8089 H   0  0  0  0  0  0  0  0  0  0  0  0
    5.6869    0.9017   -0.3254 H   0  0  0  0  0  0  0  0  0  0  0  0
    6.0763   -1.4631    1.6009 H   0  0  0  0  0  0  0  0  0  0  0  0
    5.7147    0.1779    2.1046 H   0  0  0  0  0  0  0  0  0  0  0  0
    7.9507    0.9926    1.2749 H   0  0  0  0  0  0  0  0  0  0  0  0
    0.7500    1.7547    0.8071 H   0  0  0  0  0  0  0  0  0  0  0  0
    1.1942    0.8755    2.2610 H   0  0  0  0  0  0  0  0  0  0  0  0
   -0.9190   -0.1994    0.3408 H   0  0  0  0  0  0  0  0  0  0  0  0
   -0.4082   -0.7477    3.3024 H   0  0  0  0  0  0  0  0  0  0  0  0
   -1.6883   -1.4748    2.3185 H   0  0  0  0  0  0  0  0  0  0  0  0
   -0.0034   -1.8305    1.9624 H   0  0  0  0  0  0  0  0  0  0  0  0
   -1.3813    2.2187    1.3097 H   0  0  0  0  0  0  0  0  0  0  0  0
   -1.5487    1.4168    2.8522 H   0  0  0  0  0  0  0  0  0  0  0  0
   -3.3775    0.0115    1.9803 H   0  0  0  0  0  0  0  0  0  0  0  0
   -3.7390    1.7216    1.8678 H   0  0  0  0  0  0  0  0  0  0  0  0
  1  2  1  0
  2  3  1  0
  3  4  1  0
  4  5  2  3
  5  6  1  0
  6  7  2  3
  7  8  1  0
  8  9  1  0
  9 10  2  3
 10 11  1  0
 11 12  2  0
 11 13  1  0
 13 14  1  0
 14 15  1  0
 15 16  2  0
 15 17  1  0
 17 18  1  0
 18 19  1  0
 19 20  1  0
 20 21  1  0
 21 22  3  0
 14 23  1  0
 23 24  1  0
 24 25  1  0
 24 26  1  0
 26 27  1  0
 27  4  1  0
  1 28  1  0
  1 29  1  0
  1 30  1  0
  2 31  1  0
  2 32  1  0
  3 33  1  0
  3 34  1  0
  5 35  1  0
  7 36  1  0
  8 37  1  0
  9 38  1  0
 10 39  1  0
 13 40  1  0
 14 41  1  1
 17 42  1  0
 18 43  1  0
 18 44  1  0
 19 45  1  0
 19 46  1  0
 20 47  1  0
 23 48  1  0
 23 49  1  0
 24 50  1  0
 25 51  1  0
 25 52  1  0
 25 53  1  0
 26 54  1  0
 26 55  1  0
 27 56  1  0
 27 57  1  0
M  RAD  1  20   2
M  END
>  <candidate_id>  (94) 
CAND_bf1bed9cef

>  <source_generator>  (94) 
selfies

>  <parent_mol_id>  (94) 
JAK2_9dcdbe0544

>  <canonical_smiles>  (94) 
CCCC1=CN=CNC=CC(=O)N[C@@H](C(=O)NCC[CH]C#N)CC(C)CC1

>  <inchikey>  (94) 
RHYGQJVNSOGFNN-UHUGOGIASA-N

>  <valid_rdkit>  (94) 
True

>  <unique_flag>  (94) 
True

>  <novel_flag>  (94) 
True

>  <mw>  (94) 
372.493

>  <logp>  (94) 
2.341

>  <tpsa>  (94) 
106.38

>  <hbd>  (94) 
3

>  <hba>  (94) 
5

>  <rotatable_bonds>  (94) 
6

>  <qed>  (94) 
0.6222

>  <sa_score>  (94) 
3.825

>  <murcko_scaffold>  (94) 
O=C1C=CNC=NC=CCCCCCN1

>  <max_ring_size>  (94) 
14

>  <has_macrocycle_12_20>  (94) 
True

>  <has_constrained_ring_8_11>  (94) 
False

>  <passes_basic_filters>  (94) 
True

>  <generation_notes>  (94) 
selfies_token_mutation

>  <best_score>  (94) 
nan

>  <qed_admet>  (94) 
0.6222

>  <sa_score_admet>  (94) 
3.825

>  <mw_admet>  (94) 
372.493

>  <logp_admet>  (94) 
2.341

>  <tpsa_admet>  (94) 
106.38

>  <hbd_admet>  (94) 
3

>  <hba_admet>  (94) 
5

>  <rotatable_bonds_admet>  (94) 
6

>  <lipinski_violations>  (94) 
0

>  <veber_pass>  (94) 
True

>  <admet_score>  (94) 
0.82999

>  <synthesis_score>  (94) 
0.686111

>  <safety_proxy_score>  (94) 
1.0

>  <main_risk>  (94) 
no_major_descriptor_risk

>  <pose_score>  (94) 
0.5

>  <pose_decision>  (94) 
nan

>  <contacts_within_4A>  (94) 
nan

>  <hard_clashes_lt_1_8A>  (94) 
nan

>  <smiles>  (94) 
CCCC1=CN=CNC=CC(=O)N[C@@H](C(=O)NCC[CH]C#N)CC(C)CC1

>  <docking_score>  (94) 
nan

>  <diversity_cluster>  (94) 
scaffold_3ea12914

>  <docking_score_scaled>  (94) 
0.0

>  <novelty_score>  (94) 
1.0

>  <final_weighted_score>  (94) 
0.493915

>  <rank>  (94) 
1429

>  <decision>  (94) 
await_docking

>  <diverse_rank>  (94) 
0

>  <selection_tier>  (94) 
await_docking

$$$$
CAND_c131766321
     RDKit          3D

 36 37  0  0  0  0  0  0  0  0999 V2000
    6.2314    0.7008   -0.8183 F   0  0  0  0  0  0  0  0  0  0  0  0
    4.9059    0.9338   -0.5950 C   0  0  0  0  0  0  0  0  0  0  0  0
    4.5557    0.5381    0.8226 C   0  0  0  0  0  0  0  0  0  0  0  0
    3.4210    0.7326    1.4222 N   0  0  0  0  0  0  0  0  0  0  0  0
    2.3917    1.3461    0.5610 C   0  0  0  0  0  0  0  0  0  0  0  0
    1.8754    0.3112   -0.4504 C   0  0  2  0  0  0  0  0  0  0  0  0
    1.5694   -0.9721    0.2152 N   0  0  0  0  0  0  0  0  0  0  0  0
    0.1560   -1.3376    0.3461 C   0  0  0  0  0  0  0  0  0  0  0  0
   -0.6541   -0.3438    1.1687 C   0  0  0  0  0  0  0  0  0  0  0  0
   -0.8534    0.8914    0.8063 N   0  0  0  0  0  0  0  0  0  0  0  0
   -1.7513    1.5826    1.5850 C   0  0  0  0  0  0  0  0  0  0  0  0
   -3.0749    1.4609    1.3906 C   0  0  0  0  0  0  0  0  0  0  0  0
   -3.5927    0.6327    0.4298 N   0  0  0  0  0  0  0  0  0  0  0  0
   -4.8389    0.1047    0.2654 C   0  0  0  0  0  0  0  0  0  0  0  0
   -5.1775   -0.9546   -0.4051 N   0  0  0  0  0  0  0  0  0  0  0  0
   -4.1436   -1.6602   -0.9760 C   0  0  0  0  0  0  0  0  0  0  0  0
   -3.3024   -2.4283   -0.2648 C   0  0  0  0  0  0  0  0  0  0  0  0
   -1.9256   -3.2328   -0.9261 S   0  0  0  0  0  0  0  0  0  0  0  0
   -0.6813   -1.6200   -1.2639 S   0  0  0  0  0  0  0  0  0  0  0  0
    2.8965   -0.0391   -1.5301 C   0  0  0  0  0  0  0  0  0  0  0  0
    4.1626    0.1857   -1.5955 N   0  0  0  0  0  0  0  0  0  0  0  0
    4.7608    2.0093   -0.7295 H   0  0  0  0  0  0  0  0  0  0  0  0
    5.3610    0.0472    1.3940 H   0  0  0  0  0  0  0  0  0  0  0  0
    2.7513    2.2581    0.0713 H   0  0  0  0  0  0  0  0  0  0  0  0
    1.5814    1.6691    1.2215 H   0  0  0  0  0  0  0  0  0  0  0  0
    1.0196    0.7293   -0.9905 H   0  0  0  0  0  0  0  0  0  0  0  0
    2.0114   -0.9433    1.1394 H   0  0  0  0  0  0  0  0  0  0  0  0
    0.1386   -2.2857    0.8945 H   0  0  0  0  0  0  0  0  0  0  0  0
   -1.1192   -0.7576    2.0849 H   0  0  0  0  0  0  0  0  0  0  0  0
   -1.3510    2.2473    2.3462 H   0  0  0  0  0  0  0  0  0  0  0  0
   -3.8003    1.9781    2.0104 H   0  0  0  0  0  0  0  0  0  0  0  0
   -2.8684    0.2643   -0.1831 H   0  0  0  0  0  0  0  0  0  0  0  0
   -5.6218    0.6556    0.8146 H   0  0  0  0  0  0  0  0  0  0  0  0
   -4.0270   -1.5399   -2.0514 H   0  0  0  0  0  0  0  0  0  0  0  0
   -3.4793   -2.5539    0.7991 H   0  0  0  0  0  0  0  0  0  0  0  0
    2.4730   -0.6102   -2.3774 H   0  0  0  0  0  0  0  0  0  0  0  0
  1  2  1  0
  2  3  1  0
  3  4  2  0
  4  5  1  0
  5  6  1  0
  6  7  1  0
  7  8  1  0
  8  9  1  0
  9 10  2  3
 10 11  1  0
 11 12  2  3
 12 13  1  0
 13 14  1  0
 14 15  2  3
 15 16  1  0
 16 17  2  3
 17 18  1  0
 18 19  1  0
  6 20  1  0
 20 21  2  0
 21  2  1  0
 19  8  1  0
  2 22  1  0
  3 23  1  0
  5 24  1  0
  5 25  1  0
  6 26  1  6
  7 27  1  0
  8 28  1  0
  9 29  1  0
 11 30  1  0
 12 31  1  0
 13 32  1  0
 14 33  1  0
 16 34  1  0
 17 35  1  0
 20 36  1  0
M  END
>  <candidate_id>  (95) 
CAND_c131766321

>  <source_generator>  (95) 
selfies

>  <parent_mol_id>  (95) 
JAK2_37bf299c61

>  <canonical_smiles>  (95) 
FC1C=NC[C@H](NC2C=NC=CNC=NC=CSS2)C=N1

>  <inchikey>  (95) 
JQMNTJSMRKRAGB-UNXYVOJBSA-N

>  <valid_rdkit>  (95) 
True

>  <unique_flag>  (95) 
True

>  <novel_flag>  (95) 
True

>  <mw>  (95) 
326.426

>  <logp>  (95) 
1.7476

>  <tpsa>  (95) 
73.5

>  <hbd>  (95) 
2

>  <hba>  (95) 
8

>  <rotatable_bonds>  (95) 
2

>  <qed>  (95) 
0.5988

>  <sa_score>  (95) 
3.7

>  <murcko_scaffold>  (95) 
C1=CNC=NC=CSSC(N[C@@H]2C=NCC=NC2)C=N1

>  <max_ring_size>  (95) 
12

>  <has_macrocycle_12_20>  (95) 
True

>  <has_constrained_ring_8_11>  (95) 
False

>  <passes_basic_filters>  (95) 
True

>  <generation_notes>  (95) 
selfies_token_mutation

>  <best_score>  (95) 
nan

>  <qed_admet>  (95) 
0.5988

>  <sa_score_admet>  (95) 
3.7

>  <mw_admet>  (95) 
326.426

>  <logp_admet>  (95) 
1.7476

>  <tpsa_admet>  (95) 
73.5

>  <hbd_admet>  (95) 
2

>  <hba_admet>  (95) 
8

>  <rotatable_bonds_admet>  (95) 
2

>  <lipinski_violations>  (95) 
0

>  <veber_pass>  (95) 
True

>  <admet_score>  (95) 
0.81946

>  <synthesis_score>  (95) 
0.7

>  <safety_proxy_score>  (95) 
1.0

>  <main_risk>  (95) 
no_major_descriptor_risk

>  <pose_score>  (95) 
0.5

>  <pose_decision>  (95) 
nan

>  <contacts_within_4A>  (95) 
nan

>  <hard_clashes_lt_1_8A>  (95) 
nan

>  <smiles>  (95) 
FC1C=NC[C@H](NC2C=NC=CNC=NC=CSS2)C=N1

>  <docking_score>  (95) 
nan

>  <diversity_cluster>  (95) 
scaffold_41df8311

>  <docking_score_scaled>  (95) 
0.0

>  <novelty_score>  (95) 
1.0

>  <final_weighted_score>  (95) 
0.493892

>  <rank>  (95) 
1430

>  <decision>  (95) 
await_docking

>  <diverse_rank>  (95) 
946

>  <selection_tier>  (95) 
await_docking

$$$$
CAND_49a2c11445
     RDKit          3D

 65 68  0  0  0  0  0  0  0  0999 V2000
    5.7777   -2.7000   -1.9526 N   0  0  0  0  0  0  0  0  0  0  0  0
    5.7555   -2.2791   -0.8708 C   0  0  0  0  0  0  0  0  0  0  0  0
    5.7081   -1.7974    0.5082 C   0  0  0  0  0  0  0  0  0  0  0  0
    4.6658   -0.7115    0.6481 C   0  0  0  0  0  0  0  0  0  0  0  0
    5.0228    0.4687    0.6106 O   0  0  0  0  0  0  0  0  0  0  0  0
    3.3369   -1.0739    0.8294 N   0  0  0  0  0  0  0  0  0  0  0  0
    2.7870   -2.4193    0.7007 C   0  0  0  0  0  0  0  0  0  0  0  0
    1.8324   -2.4730   -0.4912 C   0  0  0  0  0  0  0  0  0  0  0  0
    0.7366   -1.3834   -0.4379 C   0  0  1  0  0  0  0  0  0  0  0  0
   -0.3452   -1.7411    0.6163 C   0  0  0  0  0  0  0  0  0  0  0  0
   -1.5399   -2.4446   -0.0398 C   0  0  0  0  0  0  0  0  0  0  0  0
   -2.7152   -2.6165    0.9291 C   0  0  0  0  0  0  0  0  0  0  0  0
   -3.9879   -3.0400    0.1936 C   0  0  0  0  0  0  0  0  0  0  0  0
   -4.4239   -1.9939   -0.6773 O   0  0  0  0  0  0  0  0  0  0  0  0
   -5.3982   -1.1383   -0.0764 C   0  0  0  0  0  0  0  0  0  0  0  0
   -5.5405    0.1758   -0.8710 C   0  0  0  0  0  0  0  0  0  0  0  0
   -4.5292    1.1905   -0.5272 N   0  0  0  0  0  0  0  0  0  0  0  0
   -3.2710    1.0018   -1.2546 C   0  0  0  0  0  0  0  0  0  0  0  0
   -2.0888    1.4459   -0.3896 C   0  0  0  0  0  0  0  0  0  0  0  0
   -0.7466    1.2210   -1.1000 C   0  0  0  0  0  0  0  0  0  0  0  0
    0.3411    1.0935   -0.1225 N   0  0  0  0  0  0  0  0  0  0  0  0
    0.7289    2.3157    0.4215 C   0  0  0  0  0  0  0  0  0  0  0  0
    0.2414    2.6452    1.6423 N   0  0  0  0  0  0  0  0  0  0  0  0
    0.6066    3.8200    2.1912 C   0  0  0  0  0  0  0  0  0  0  0  0
    1.4273    4.7561    1.6861 N   0  0  0  0  0  0  0  0  0  0  0  0
    1.8924    4.3909    0.4833 C   0  0  0  0  0  0  0  0  0  0  0  0
    2.7543    5.1347   -0.2751 N   0  0  0  0  0  0  0  0  0  0  0  0
    3.0252    4.4780   -1.4484 C   0  0  0  0  0  0  0  0  0  0  0  0
    2.3256    3.2892   -1.4334 C   0  0  0  0  0  0  0  0  0  0  0  0
    1.6032    3.2241   -0.2069 C   0  0  0  0  0  0  0  0  0  0  0  0
    1.3710    0.0352   -0.2329 C   0  0  1  0  0  0  0  0  0  0  0  0
    2.3237   -0.0217    0.9966 C   0  0  0  0  0  0  0  0  0  0  0  0
    6.6791   -1.3716    0.7869 H   0  0  0  0  0  0  0  0  0  0  0  0
    5.5166   -2.6054    1.2199 H   0  0  0  0  0  0  0  0  0  0  0  0
    2.2717   -2.6569    1.6372 H   0  0  0  0  0  0  0  0  0  0  0  0
    3.5665   -3.1707    0.5688 H   0  0  0  0  0  0  0  0  0  0  0  0
    1.3778   -3.4683   -0.5576 H   0  0  0  0  0  0  0  0  0  0  0  0
    2.4131   -2.3305   -1.4122 H   0  0  0  0  0  0  0  0  0  0  0  0
    0.2713   -1.3939   -1.4306 H   0  0  0  0  0  0  0  0  0  0  0  0
    0.0589   -2.3850    1.4048 H   0  0  0  0  0  0  0  0  0  0  0  0
   -0.7050   -0.8422    1.1247 H   0  0  0  0  0  0  0  0  0  0  0  0
   -1.2304   -3.4258   -0.4193 H   0  0  0  0  0  0  0  0  0  0  0  0
   -1.8659   -1.8611   -0.9066 H   0  0  0  0  0  0  0  0  0  0  0  0
   -2.8969   -1.6696    1.4505 H   0  0  0  0  0  0  0  0  0  0  0  0
   -2.4571   -3.3681    1.6834 H   0  0  0  0  0  0  0  0  0  0  0  0
   -4.7790   -3.3145    0.9013 H   0  0  0  0  0  0  0  0  0  0  0  0
   -3.7826   -3.9195   -0.4260 H   0  0  0  0  0  0  0  0  0  0  0  0
   -5.1433   -0.9249    0.9687 H   0  0  0  0  0  0  0  0  0  0  0  0
   -6.3575   -1.6685   -0.0883 H   0  0  0  0  0  0  0  0  0  0  0  0
   -5.5491   -0.0131   -1.9509 H   0  0  0  0  0  0  0  0  0  0  0  0
   -6.5115    0.6135   -0.6127 H   0  0  0  0  0  0  0  0  0  0  0  0
   -4.3571    1.1642    0.4774 H   0  0  0  0  0  0  0  0  0  0  0  0
   -3.3022    1.5905   -2.1782 H   0  0  0  0  0  0  0  0  0  0  0  0
   -3.1229   -0.0422   -1.5427 H   0  0  0  0  0  0  0  0  0  0  0  0
   -2.1920    2.5062   -0.1260 H   0  0  0  0  0  0  0  0  0  0  0  0
   -2.1097    0.8855    0.5534 H   0  0  0  0  0  0  0  0  0  0  0  0
   -0.8152    0.3218   -1.7162 H   0  0  0  0  0  0  0  0  0  0  0  0
   -0.5546    2.0371   -1.8088 H   0  0  0  0  0  0  0  0  0  0  0  0
    0.1833    4.0358    3.1674 H   0  0  0  0  0  0  0  0  0  0  0  0
    3.1244    6.0292    0.0114 H   0  0  0  0  0  0  0  0  0  0  0  0
    3.6927    4.9072   -2.1837 H   0  0  0  0  0  0  0  0  0  0  0  0
    2.3343    2.5426   -2.2162 H   0  0  0  0  0  0  0  0  0  0  0  0
    1.9833    0.2471   -1.1205 H   0  0  0  0  0  0  0  0  0  0  0  0
    1.7634   -0.2420    1.9138 H   0  0  0  0  0  0  0  0  0  0  0  0
    2.8185    0.9401    1.1565 H   0  0  0  0  0  0  0  0  0  0  0  0
  1  2  3  0
  2  3  1  0
  3  4  1  0
  4  5  2  0
  4  6  1  0
  6  7  1  0
  7  8  1  0
  8  9  1  0
  9 10  1  0
 10 11  1  0
 11 12  1  0
 12 13  1  0
 13 14  1  0
 14 15  1  0
 15 16  1  0
 16 17  1  0
 17 18  1  0
 18 19  1  0
 19 20  1  0
 20 21  1  0
 21 22  1  0
 22 23  2  0
 23 24  1  0
 24 25  2  0
 25 26  1  0
 26 27  1  0
 27 28  1  0
 28 29  2  0
 29 30  1  0
 21 31  1  0
 31 32  1  0
 32  6  1  0
 31  9  1  0
 30 22  1  0
 30 26  2  0
  3 33  1  0
  3 34  1  0
  7 35  1  0
  7 36  1  0
  8 37  1  0
  8 38  1  0
  9 39  1  6
 10 40  1  0
 10 41  1  0
 11 42  1  0
 11 43  1  0
 12 44  1  0
 12 45  1  0
 13 46  1  0
 13 47  1  0
 15 48  1  0
 15 49  1  0
 16 50  1  0
 16 51  1  0
 17 52  1  0
 18 53  1  0
 18 54  1  0
 19 55  1  0
 19 56  1  0
 20 57  1  0
 20 58  1  0
 24 59  1  0
 27 60  1  0
 28 61  1  0
 29 62  1  0
 31 63  1  6
 32 64  1  0
 32 65  1  0
M  END
>  <candidate_id>  (96) 
CAND_49a2c11445

>  <source_generator>  (96) 
macrocycle_linker

>  <parent_mol_id>  (96) 
JAK2_3f3d946705

>  <canonical_smiles>  (96) 
N#CCC(=O)N1CC[C@H]2CCCCOCCNCCCN(c3ncnc4[nH]ccc34)[C@H]2C1

>  <inchikey>  (96) 
LKQLFSRIDCMWNJ-QUCCMNQESA-N

>  <valid_rdkit>  (96) 
True

>  <unique_flag>  (96) 
True

>  <novel_flag>  (96) 
True

>  <mw>  (96) 
439.564

>  <logp>  (96) 
2.0753

>  <tpsa>  (96) 
110.17

>  <hbd>  (96) 
2

>  <hba>  (96) 
7

>  <rotatable_bonds>  (96) 
2

>  <qed>  (96) 
0.737

>  <sa_score>  (96) 
4.448

>  <murcko_scaffold>  (96) 
c1nc(N2CCCNCCOCCCC[C@@H]3CCNC[C@@H]32)c2cc[nH]c2n1

>  <max_ring_size>  (96) 
14

>  <has_macrocycle_12_20>  (96) 
True

>  <has_constrained_ring_8_11>  (96) 
False

>  <passes_basic_filters>  (96) 
True

>  <generation_notes>  (96) 
macrocycle_bridge_oxa_aza_path4_ring13

>  <best_score>  (96) 
nan

>  <qed_admet>  (96) 
0.737

>  <sa_score_admet>  (96) 
4.448

>  <mw_admet>  (96) 
439.564

>  <logp_admet>  (96) 
2.0753

>  <tpsa_admet>  (96) 
110.17

>  <hbd_admet>  (96) 
2

>  <hba_admet>  (96) 
7

>  <rotatable_bonds_admet>  (96) 
2

>  <lipinski_violations>  (96) 
0

>  <veber_pass>  (96) 
True

>  <admet_score>  (96) 
0.88165

>  <synthesis_score>  (96) 
0.616889

>  <safety_proxy_score>  (96) 
1.0

>  <main_risk>  (96) 
no_major_descriptor_risk

>  <pose_score>  (96) 
0.5

>  <pose_decision>  (96) 
nan

>  <contacts_within_4A>  (96) 
nan

>  <hard_clashes_lt_1_8A>  (96) 
nan

>  <smiles>  (96) 
N#CCC(=O)N1CC[C@H]2CCCCOCCNCCCN(c3ncnc4[nH]ccc34)[C@H]2C1

>  <docking_score>  (96) 
nan

>  <diversity_cluster>  (96) 
scaffold_10489abc

>  <docking_score_scaled>  (96) 
0.0

>  <novelty_score>  (96) 
1.0

>  <final_weighted_score>  (96) 
0.493863

>  <rank>  (96) 
1431

>  <decision>  (96) 
await_docking

>  <diverse_rank>  (96) 
947

>  <selection_tier>  (96) 
await_docking

$$$$
CAND_4b9a80dcb9
     RDKit          3D

 62 65  0  0  0  0  0  0  0  0999 V2000
    0.4806   -3.0990   -0.9345 C   0  0  0  0  0  0  0  0  0  0  0  0
   -0.0960   -1.6989   -0.6764 C   0  0  0  0  0  0  0  0  0  0  0  0
   -1.3742   -1.3942   -1.4952 C   0  0  0  0  0  0  0  0  0  0  0  0
   -2.7067   -2.0650   -1.0687 C   0  0  0  0  0  0  0  0  0  0  0  0
   -2.6990   -3.5793   -1.2843 C   0  0  0  0  0  0  0  0  0  0  0  0
   -3.1554   -1.6702    0.3626 C   0  0  0  0  0  0  0  0  0  0  0  0
   -4.5027   -2.2572    0.7147 C   0  0  0  0  0  0  0  0  0  0  0  0
   -4.6158   -3.5610    1.4667 C   0  0  0  0  0  0  0  0  0  0  0  0
   -4.9661   -2.2708    2.1518 C   0  0  0  0  0  0  0  0  0  0  0  0
   -3.3208   -0.2341    0.3946 O   0  0  0  0  0  0  0  0  0  0  0  0
   -2.7691    0.4800    1.3988 C   0  0  0  0  0  0  0  0  0  0  0  0
   -1.9894   -0.0183    2.2967 N   0  0  0  0  0  0  0  0  0  0  0  0
   -1.5519    0.8923    3.2249 C   0  0  0  0  0  0  0  0  0  0  0  0
   -0.4313    1.6328    3.1328 C   0  0  0  0  0  0  0  0  0  0  0  0
   -0.1248    2.5567    4.2548 C   0  0  0  0  0  0  0  0  0  0  0  0
   -0.1969    2.0235    5.5039 N   0  0  0  0  0  0  0  0  0  0  0  0
    0.2270    3.7125    4.0666 O   0  0  0  0  0  0  0  0  0  0  0  0
    0.5673    1.7344    2.0098 C   0  0  0  0  0  0  0  0  0  0  0  0
    0.4710    0.6152    1.0881 N   0  0  0  0  0  0  0  0  0  0  0  0
    1.1915    0.4721   -0.0839 C   0  0  0  0  0  0  0  0  0  0  0  0
    2.1797    1.4124   -0.4447 C   0  0  0  0  0  0  0  0  0  0  0  0
    2.9182    1.3218   -1.6351 C   0  0  0  0  0  0  0  0  0  0  0  0
    3.9454    2.3068   -1.9384 C   0  0  0  0  0  0  0  0  0  0  0  0
    4.7085    3.1400   -1.0847 C   0  0  0  0  0  0  0  0  0  0  0  0
    5.5675    3.9175   -1.7482 N   0  0  0  0  0  0  0  0  0  0  0  0
    5.3558    3.5897   -3.0343 N   0  0  0  0  0  0  0  0  0  0  0  0
    6.1270    4.2364   -4.0670 C   0  0  0  0  0  0  0  0  0  0  0  0
    4.3953    2.6342   -3.2017 C   0  0  0  0  0  0  0  0  0  0  0  0
    2.6487    0.2662   -2.5019 C   0  0  0  0  0  0  0  0  0  0  0  0
    1.6773   -0.6803   -2.1746 C   0  0  0  0  0  0  0  0  0  0  0  0
    0.9534   -0.6115   -0.9642 C   0  0  0  0  0  0  0  0  0  0  0  0
    0.5036   -3.3453   -2.0018 H   0  0  0  0  0  0  0  0  0  0  0  0
    1.5036   -3.1847   -0.5434 H   0  0  0  0  0  0  0  0  0  0  0  0
   -0.1079   -3.8679   -0.4284 H   0  0  0  0  0  0  0  0  0  0  0  0
   -0.3332   -1.6925    0.3865 H   0  0  0  0  0  0  0  0  0  0  0  0
   -1.1906   -1.6383   -2.5497 H   0  0  0  0  0  0  0  0  0  0  0  0
   -1.5442   -0.3094   -1.4834 H   0  0  0  0  0  0  0  0  0  0  0  0
   -3.4561   -1.6608   -1.7651 H   0  0  0  0  0  0  0  0  0  0  0  0
   -2.1915   -3.8467   -2.2174 H   0  0  0  0  0  0  0  0  0  0  0  0
   -2.2189   -4.1071   -0.4563 H   0  0  0  0  0  0  0  0  0  0  0  0
   -3.7231   -3.9607   -1.3587 H   0  0  0  0  0  0  0  0  0  0  0  0
   -2.4073   -2.0118    1.0852 H   0  0  0  0  0  0  0  0  0  0  0  0
   -5.2531   -2.0330   -0.0362 H   0  0  0  0  0  0  0  0  0  0  0  0
   -5.4247   -4.2304    1.1979 H   0  0  0  0  0  0  0  0  0  0  0  0
   -3.7107   -4.0668    1.7799 H   0  0  0  0  0  0  0  0  0  0  0  0
   -6.0129   -2.0665    2.3490 H   0  0  0  0  0  0  0  0  0  0  0  0
   -4.2923   -1.9072    2.9198 H   0  0  0  0  0  0  0  0  0  0  0  0
   -3.0723    1.5385    1.3210 H   0  0  0  0  0  0  0  0  0  0  0  0
   -2.1881    0.9707    4.1056 H   0  0  0  0  0  0  0  0  0  0  0  0
   -0.3806    1.0462    5.6859 H   0  0  0  0  0  0  0  0  0  0  0  0
    0.0346    2.6241    6.2842 H   0  0  0  0  0  0  0  0  0  0  0  0
    0.3881    2.6747    1.4754 H   0  0  0  0  0  0  0  0  0  0  0  0
    1.5793    1.7590    2.4295 H   0  0  0  0  0  0  0  0  0  0  0  0
   -0.2251   -0.0789    1.3350 H   0  0  0  0  0  0  0  0  0  0  0  0
    2.3781    2.2507    0.2168 H   0  0  0  0  0  0  0  0  0  0  0  0
    4.6797    3.2056   -0.0050 H   0  0  0  0  0  0  0  0  0  0  0  0
    5.8288    3.8464   -5.0432 H   0  0  0  0  0  0  0  0  0  0  0  0
    5.9348    5.3102   -4.0196 H   0  0  0  0  0  0  0  0  0  0  0  0
    7.1840    4.0263   -3.8890 H   0  0  0  0  0  0  0  0  0  0  0  0
    4.1171    2.2833   -4.1850 H   0  0  0  0  0  0  0  0  0  0  0  0
    3.1953    0.1513   -3.4348 H   0  0  0  0  0  0  0  0  0  0  0  0
    1.4917   -1.4834   -2.8837 H   0  0  0  0  0  0  0  0  0  0  0  0
  1  2  1  0
  2  3  1  0
  3  4  1  0
  4  5  1  0
  4  6  1  0
  6  7  1  0
  7  8  1  0
  8  9  1  0
  6 10  1  0
 10 11  1  0
 11 12  2  3
 12 13  1  0
 13 14  2  3
 14 15  1  0
 15 16  1  0
 15 17  2  0
 14 18  1  0
 18 19  1  0
 19 20  1  0
 20 21  2  0
 21 22  1  0
 22 23  1  0
 23 24  1  0
 24 25  2  0
 25 26  1  0
 26 27  1  0
 26 28  1  0
 22 29  2  0
 29 30  1  0
 30 31  2  0
 31  2  1  0
  9  7  1  0
 31 20  1  0
 28 23  2  0
  1 32  1  0
  1 33  1  0
  1 34  1  0
  2 35  1  0
  3 36  1  0
  3 37  1  0
  4 38  1  0
  5 39  1  0
  5 40  1  0
  5 41  1  0
  6 42  1  0
  7 43  1  0
  8 44  1  0
  8 45  1  0
  9 46  1  0
  9 47  1  0
 11 48  1  0
 13 49  1  0
 16 50  1  0
 16 51  1  0
 18 52  1  0
 18 53  1  0
 19 54  1  0
 21 55  1  0
 24 56  1  0
 27 57  1  0
 27 58  1  0
 27 59  1  0
 28 60  1  0
 29 61  1  0
 30 62  1  0
M  END
>  <candidate_id>  (97) 
CAND_4b9a80dcb9

>  <source_generator>  (97) 
selfies

>  <parent_mol_id>  (97) 
JAK2_bc0710184a

>  <canonical_smiles>  (97) 
CC1CC(C)C(C2CC2)OC=NC=C(C(N)=O)CNc2cc(-c3cnn(C)c3)ccc21

>  <inchikey>  (97) 
ITXXUCMGMURGNR-UHFFFAOYSA-N

>  <valid_rdkit>  (97) 
True

>  <unique_flag>  (97) 
True

>  <novel_flag>  (97) 
True

>  <mw>  (97) 
421.545

>  <logp>  (97) 
3.835

>  <tpsa>  (97) 
94.53

>  <hbd>  (97) 
2

>  <hba>  (97) 
5

>  <rotatable_bonds>  (97) 
3

>  <qed>  (97) 
0.7873

>  <sa_score>  (97) 
4.722

>  <murcko_scaffold>  (97) 
C1=CN=COC(C2CC2)CCCc2ccc(-c3cn[nH]c3)cc2NC1

>  <max_ring_size>  (97) 
13

>  <has_macrocycle_12_20>  (97) 
True

>  <has_constrained_ring_8_11>  (97) 
False

>  <passes_basic_filters>  (97) 
True

>  <generation_notes>  (97) 
selfies_token_mutation

>  <best_score>  (97) 
nan

>  <qed_admet>  (97) 
0.7873

>  <sa_score_admet>  (97) 
4.722

>  <mw_admet>  (97) 
421.545

>  <logp_admet>  (97) 
3.835

>  <tpsa_admet>  (97) 
94.53

>  <hbd_admet>  (97) 
2

>  <hba_admet>  (97) 
5

>  <rotatable_bonds_admet>  (97) 
3

>  <lipinski_violations>  (97) 
0

>  <veber_pass>  (97) 
True

>  <admet_score>  (97) 
0.904285

>  <synthesis_score>  (97) 
0.586444

>  <safety_proxy_score>  (97) 
1.0

>  <main_risk>  (97) 
no_major_descriptor_risk

>  <pose_score>  (97) 
0.5

>  <pose_decision>  (97) 
nan

>  <contacts_within_4A>  (97) 
nan

>  <hard_clashes_lt_1_8A>  (97) 
nan

>  <smiles>  (97) 
CC1CC(C)C(C2CC2)OC=NC=C(C(N)=O)CNc2cc(-c3cnn(C)c3)ccc21

>  <docking_score>  (97) 
nan

>  <diversity_cluster>  (97) 
scaffold_73d8daf4

>  <docking_score_scaled>  (97) 
0.0

>  <novelty_score>  (97) 
1.0

>  <final_weighted_score>  (97) 
0.493824

>  <rank>  (97) 
1433

>  <decision>  (97) 
await_docking

>  <diverse_rank>  (97) 
948

>  <selection_tier>  (97) 
await_docking

$$$$
CAND_b5d4c77a0b
     RDKit          3D

 56 59  0  0  0  0  0  0  0  0999 V2000
   -0.1054    4.0991   -0.0603 C   0  0  0  0  0  0  0  0  0  0  0  0
    0.4791    2.8933   -0.1122 C   0  0  0  0  0  0  0  0  0  0  0  0
    0.7090    2.1456   -1.3542 C   0  0  0  0  0  0  0  0  0  0  0  0
    1.7026    2.5184   -2.2103 C   0  0  0  0  0  0  0  0  0  0  0  0
    2.7813    3.2623   -1.8449 C   0  0  0  0  0  0  0  0  0  0  0  0
    3.3575    3.1983   -0.6188 C   0  0  0  0  0  0  0  0  0  0  0  0
    3.5026    2.0255    0.0399 C   0  0  0  0  0  0  0  0  0  0  0  0
    3.5681    0.7750   -0.5115 N   0  0  0  0  0  0  0  0  0  0  0  0
    3.7154   -0.4062    0.3218 N   0  0  0  0  0  0  0  0  0  0  0  0
    2.9979   -0.2686    1.4741 C   0  0  0  0  0  0  0  0  0  0  0  0
    1.9726   -1.2420    1.6449 N   0  0  0  0  0  0  0  0  0  0  0  0
    0.7284   -0.8277    2.0827 N   0  0  0  0  0  0  0  0  0  0  0  0
   -0.1515   -0.2358    1.2000 C   0  0  0  0  0  0  0  0  0  0  0  0
   -0.6257   -0.5808   -0.0248 C   0  0  0  0  0  0  0  0  0  0  0  0
   -1.1066    0.5054   -0.8272 N   0  0  0  0  0  0  0  0  0  0  0  0
   -2.2361    1.3500   -0.3600 C   0  0  0  0  0  0  0  0  0  0  0  0
   -3.8596    0.6344   -0.0180 S   0  0  0  0  0  0  0  0  0  0  0  0
   -3.6323   -0.3452    1.4426 C   0  0  0  0  0  0  0  0  0  0  0  0
   -4.7387    1.7305    0.3715 O   0  0  0  0  0  0  0  0  0  0  0  0
   -4.2794   -0.2384   -1.1018 O   0  0  0  0  0  0  0  0  0  0  0  0
   -0.1193    1.1148   -1.6527 C   0  0  0  0  0  0  0  0  0  0  0  0
   -0.6102   -1.8789   -0.5767 N   0  0  0  0  0  0  0  0  0  0  0  0
   -1.6392   -2.2334   -1.5836 C   0  0  0  0  0  0  0  0  0  0  0  0
   -2.5727   -3.3638   -1.0561 C   0  0  0  0  0  0  0  0  0  0  0  0
   -2.6126   -3.5092    0.3781 O   0  0  0  0  0  0  0  0  0  0  0  0
   -1.2961   -3.6365    0.9853 C   0  0  0  0  0  0  0  0  0  0  0  0
   -0.1615   -3.1315    0.0758 C   0  0  0  0  0  0  0  0  0  0  0  0
    1.2481   -3.3241    0.5265 C   0  0  0  0  0  0  0  0  0  0  0  0
    2.1208   -2.5139    1.1298 C   0  0  0  0  0  0  0  0  0  0  0  0
    3.1791    0.8989    2.2321 N   0  0  0  0  0  0  0  0  0  0  0  0
    3.4958    1.9638    1.5409 C   0  0  0  0  0  0  0  0  0  0  0  0
   -0.2222    4.6097    0.8887 H   0  0  0  0  0  0  0  0  0  0  0  0
   -0.4545    4.5959   -0.9587 H   0  0  0  0  0  0  0  0  0  0  0  0
    0.8451    2.4209    0.7942 H   0  0  0  0  0  0  0  0  0  0  0  0
    1.5901    2.2766   -3.2647 H   0  0  0  0  0  0  0  0  0  0  0  0
    3.1869    3.9638   -2.5680 H   0  0  0  0  0  0  0  0  0  0  0  0
    3.8044    4.0851   -0.1835 H   0  0  0  0  0  0  0  0  0  0  0  0
    3.4201    0.6315   -1.4989 H   0  0  0  0  0  0  0  0  0  0  0  0
    0.8606   -0.2943    2.9394 H   0  0  0  0  0  0  0  0  0  0  0  0
   -0.2910    0.7778    1.5494 H   0  0  0  0  0  0  0  0  0  0  0  0
   -2.4528    2.0999   -1.1328 H   0  0  0  0  0  0  0  0  0  0  0  0
   -1.9733    1.8974    0.5515 H   0  0  0  0  0  0  0  0  0  0  0  0
   -3.1932    0.2796    2.2224 H   0  0  0  0  0  0  0  0  0  0  0  0
   -2.9966   -1.1944    1.2210 H   0  0  0  0  0  0  0  0  0  0  0  0
   -4.6135   -0.7008    1.7654 H   0  0  0  0  0  0  0  0  0  0  0  0
    0.0817    0.4773   -2.5114 H   0  0  0  0  0  0  0  0  0  0  0  0
   -1.1487   -2.5713   -2.5053 H   0  0  0  0  0  0  0  0  0  0  0  0
   -2.2488   -1.3799   -1.8836 H   0  0  0  0  0  0  0  0  0  0  0  0
   -3.5963   -3.1859   -1.4022 H   0  0  0  0  0  0  0  0  0  0  0  0
   -2.2686   -4.3288   -1.4803 H   0  0  0  0  0  0  0  0  0  0  0  0
   -1.1509   -4.6945    1.2309 H   0  0  0  0  0  0  0  0  0  0  0  0
   -1.3266   -3.0834    1.9298 H   0  0  0  0  0  0  0  0  0  0  0  0
   -0.1530   -3.8558   -0.7570 H   0  0  0  0  0  0  0  0  0  0  0  0
    1.6686   -4.2828    0.2288 H   0  0  0  0  0  0  0  0  0  0  0  0
    3.1552   -2.8370    1.2229 H   0  0  0  0  0  0  0  0  0  0  0  0
    3.6658    2.9139    2.0691 H   0  0  0  0  0  0  0  0  0  0  0  0
  1  2  2  0
  2  3  1  0
  3  4  1  0
  4  5  2  0
  5  6  1  0
  6  7  2  0
  7  8  1  0
  8  9  1  0
  9 10  2  0
 10 11  1  0
 11 12  1  0
 12 13  1  0
 13 14  2  0
 14 15  1  0
 15 16  1  0
 16 17  1  0
 17 18  1  0
 17 19  2  0
 17 20  2  0
 15 21  1  0
 14 22  1  0
 22 23  1  0
 23 24  1  0
 24 25  1  0
 25 26  1  0
 26 27  1  0
 27 28  1  0
 28 29  2  3
 10 30  1  0
 30 31  2  0
 21  3  2  0
 27 22  1  0
 31  7  1  0
 29 11  1  0
  1 32  1  0
  1 33  1  0
  2 34  1  0
  4 35  1  0
  5 36  1  0
  6 37  1  0
  8 38  1  0
 12 39  1  0
 13 40  1  0
 16 41  1  0
 16 42  1  0
 18 43  1  0
 18 44  1  0
 18 45  1  0
 21 46  1  0
 23 47  1  0
 23 48  1  0
 24 49  1  0
 24 50  1  0
 26 51  1  0
 26 52  1  0
 27 53  1  0
 28 54  1  0
 29 55  1  0
 31 56  1  0
M  END
>  <candidate_id>  (98) 
CAND_b5d4c77a0b

>  <source_generator>  (98) 
selfies

>  <parent_mol_id>  (98) 
JAK2_c5ba052617

>  <canonical_smiles>  (98) 
C=Cc1cccc2[nH]nc(n3[nH]cc(n(CS(C)(=O)=O)c1)N1CCOCC1C=C3)N=C2

>  <inchikey>  (98) 
FUULXEFZUCPUBC-UHFFFAOYSA-N

>  <valid_rdkit>  (98) 
True

>  <unique_flag>  (98) 
True

>  <novel_flag>  (98) 
True

>  <mw>  (98) 
443.533

>  <logp>  (98) 
2.1126

>  <tpsa>  (98) 
113.3

>  <hbd>  (98) 
2

>  <hba>  (98) 
6

>  <rotatable_bonds>  (98) 
3

>  <qed>  (98) 
0.7544

>  <sa_score>  (98) 
4.545

>  <murcko_scaffold>  (98) 
C1=Cn2[nH]cc([nH]cccccc3[nH]nc2N=C3)N2CCOCC12

>  <max_ring_size>  (98) 
14

>  <has_macrocycle_12_20>  (98) 
True

>  <has_constrained_ring_8_11>  (98) 
False

>  <passes_basic_filters>  (98) 
True

>  <generation_notes>  (98) 
selfies_token_mutation

>  <best_score>  (98) 
nan

>  <qed_admet>  (98) 
0.7544

>  <sa_score_admet>  (98) 
4.545

>  <mw_admet>  (98) 
443.533

>  <logp_admet>  (98) 
2.1126

>  <tpsa_admet>  (98) 
113.3

>  <hbd_admet>  (98) 
2

>  <hba_admet>  (98) 
6

>  <rotatable_bonds_admet>  (98) 
3

>  <lipinski_violations>  (98) 
0

>  <veber_pass>  (98) 
True

>  <admet_score>  (98) 
0.88948

>  <synthesis_score>  (98) 
0.606111

>  <safety_proxy_score>  (98) 
1.0

>  <main_risk>  (98) 
no_major_descriptor_risk

>  <pose_score>  (98) 
0.5

>  <pose_decision>  (98) 
nan

>  <contacts_within_4A>  (98) 
nan

>  <hard_clashes_lt_1_8A>  (98) 
nan

>  <smiles>  (98) 
C=Cc1cccc2[nH]nc(n3[nH]cc(n(CS(C)(=O)=O)c1)N1CCOCC1C=C3)N=C2

>  <docking_score>  (98) 
nan

>  <diversity_cluster>  (98) 
scaffold_f4434f2d

>  <docking_score_scaled>  (98) 
0.0

>  <novelty_score>  (98) 
1.0

>  <final_weighted_score>  (98) 
0.493813

>  <rank>  (98) 
1435

>  <decision>  (98) 
await_docking

>  <diverse_rank>  (98) 
950

>  <selection_tier>  (98) 
await_docking

$$$$
CAND_7dce99bd6a
     RDKit          3D

 52 53  0  0  0  0  0  0  0  0999 V2000
   -4.4257   -0.0877   -2.0881 O   0  0  0  0  0  0  0  0  0  0  0  0
   -4.1525    0.1912   -0.9234 C   0  0  0  0  0  0  0  0  0  0  0  0
   -3.4710   -0.8362   -0.1034 C   0  0  0  0  0  0  0  0  0  0  0  0
   -2.2503   -0.6074    0.4041 C   0  0  0  0  0  0  0  0  0  0  0  0
   -1.5109   -1.6055    1.1557 C   0  0  0  0  0  0  0  0  0  0  0  0
   -0.2811   -1.4751    1.7082 C   0  0  0  0  0  0  0  0  0  0  0  0
    0.1882   -2.6002    2.5270 C   0  0  0  0  0  0  0  0  0  0  0  0
    1.4353   -3.0498    2.7393 C   0  0  0  0  0  0  0  0  0  0  0  0
    2.6267   -2.5306    2.1653 C   0  0  0  0  0  0  0  0  0  0  0  0
    3.6572   -2.1236    1.6997 C   0  0  0  0  0  0  0  0  0  0  0  0
    4.7954   -1.6553    1.1840 O   0  0  0  0  0  0  0  0  0  0  0  0
    4.4550   -0.5780    0.3792 N   0  0  0  0  0  0  0  0  0  0  0  0
    4.9617   -0.5201   -0.8961 C   0  0  0  0  0  0  0  0  0  0  0  0
    6.1055   -1.2719   -1.0413 N   0  0  0  0  0  0  0  0  0  0  0  0
    6.9231   -1.4914   -2.1248 C   0  0  0  0  0  0  0  0  0  0  0  0
    6.8402   -1.0284   -3.3741 C   0  0  0  0  0  0  0  0  0  0  0  0
    7.9807   -1.4314   -4.5891 Cl  0  0  0  0  0  0  0  0  0  0  0  0
    4.4558    0.1642   -1.8700 N   0  0  0  0  0  0  0  0  0  0  0  0
    3.2254    0.9253   -1.6739 C   0  0  0  0  0  0  0  0  0  0  0  0
    2.0527   -0.0085   -1.7206 C   0  0  0  0  0  0  0  0  0  0  0  0
    1.1596   -0.2980   -0.7602 C   0  0  0  0  0  0  0  0  0  0  0  0
    1.0877    0.2996    0.5551 C   0  0  0  0  0  0  0  0  0  0  0  0
    0.4555   -0.2149    1.6243 C   0  0  0  0  0  0  0  0  0  0  0  0
   -4.4712    1.3933   -0.3283 N   0  0  0  0  0  0  0  0  0  0  0  0
   -4.3537    1.7235    1.0974 C   0  0  0  0  0  0  0  0  0  0  0  0
   -5.6377    2.3871    1.6118 C   0  0  0  0  0  0  0  0  0  0  0  0
   -6.0042    3.5160    0.8056 O   0  0  0  0  0  0  0  0  0  0  0  0
   -6.2322    3.1095   -0.5540 C   0  0  0  0  0  0  0  0  0  0  0  0
   -4.9687    2.4927   -1.1582 C   0  0  0  0  0  0  0  0  0  0  0  0
   -3.9713   -1.7947   -0.0465 H   0  0  0  0  0  0  0  0  0  0  0  0
   -1.7843    0.3619    0.2421 H   0  0  0  0  0  0  0  0  0  0  0  0
   -2.0348   -2.5550    1.2746 H   0  0  0  0  0  0  0  0  0  0  0  0
   -0.6067   -3.1512    3.0326 H   0  0  0  0  0  0  0  0  0  0  0  0
    1.5620   -3.9107    3.3921 H   0  0  0  0  0  0  0  0  0  0  0  0
    3.6196   -0.0654    0.6218 H   0  0  0  0  0  0  0  0  0  0  0  0
    6.3809   -1.7557   -0.1945 H   0  0  0  0  0  0  0  0  0  0  0  0
    7.7467   -2.1527   -1.8640 H   0  0  0  0  0  0  0  0  0  0  0  0
    6.0636   -0.3688   -3.7373 H   0  0  0  0  0  0  0  0  0  0  0  0
    3.2699    1.5353   -0.7666 H   0  0  0  0  0  0  0  0  0  0  0  0
    3.1295    1.6371   -2.5018 H   0  0  0  0  0  0  0  0  0  0  0  0
    1.9661   -0.5554   -2.6598 H   0  0  0  0  0  0  0  0  0  0  0  0
    0.4281   -1.0726   -0.9880 H   0  0  0  0  0  0  0  0  0  0  0  0
    1.6012    1.2483    0.6938 H   0  0  0  0  0  0  0  0  0  0  0  0
    0.5176    0.3248    2.5687 H   0  0  0  0  0  0  0  0  0  0  0  0
   -3.5122    2.4201    1.1862 H   0  0  0  0  0  0  0  0  0  0  0  0
   -4.1415    0.8404    1.7036 H   0  0  0  0  0  0  0  0  0  0  0  0
   -6.4703    1.6735    1.6220 H   0  0  0  0  0  0  0  0  0  0  0  0
   -5.4891    2.7420    2.6364 H   0  0  0  0  0  0  0  0  0  0  0  0
   -7.0693    2.4019   -0.5790 H   0  0  0  0  0  0  0  0  0  0  0  0
   -6.5247    3.9976   -1.1226 H   0  0  0  0  0  0  0  0  0  0  0  0
   -5.1589    2.1691   -2.1858 H   0  0  0  0  0  0  0  0  0  0  0  0
   -4.1685    3.2420   -1.1838 H   0  0  0  0  0  0  0  0  0  0  0  0
  1  2  2  0
  2  3  1  0
  3  4  2  3
  4  5  1  0
  5  6  2  3
  6  7  1  0
  7  8  2  3
  8  9  1  0
  9 10  3  0
 10 11  1  0
 11 12  1  0
 12 13  1  0
 13 14  1  0
 14 15  1  0
 15 16  2  3
 16 17  1  0
 13 18  2  3
 18 19  1  0
 19 20  1  0
 20 21  2  3
 21 22  1  0
 22 23  2  3
  2 24  1  0
 24 25  1  0
 25 26  1  0
 26 27  1  0
 27 28  1  0
 28 29  1  0
 23  6  1  0
 29 24  1  0
  3 30  1  0
  4 31  1  0
  5 32  1  0
  7 33  1  0
  8 34  1  0
 12 35  1  0
 14 36  1  0
 15 37  1  0
 16 38  1  0
 19 39  1  0
 19 40  1  0
 20 41  1  0
 21 42  1  0
 22 43  1  0
 23 44  1  0
 25 45  1  0
 25 46  1  0
 26 47  1  0
 26 48  1  0
 28 49  1  0
 28 50  1  0
 29 51  1  0
 29 52  1  0
M  END
>  <candidate_id>  (99) 
CAND_7dce99bd6a

>  <source_generator>  (99) 
selfies

>  <parent_mol_id>  (99) 
JAK2_8953307114

>  <canonical_smiles>  (99) 
O=C(C=CC=C1C=CC#CONC(NC=CCl)=NCC=CC=C1)N1CCOCC1

>  <inchikey>  (99) 
PTSBDGPGWXSPBV-UHFFFAOYSA-N

>  <valid_rdkit>  (99) 
True

>  <unique_flag>  (99) 
True

>  <novel_flag>  (99) 
True

>  <mw>  (99) 
414.893

>  <logp>  (99) 
2.1477

>  <tpsa>  (99) 
75.19

>  <hbd>  (99) 
2

>  <hba>  (99) 
6

>  <rotatable_bonds>  (99) 
3

>  <qed>  (99) 
0.5464

>  <sa_score>  (99) 
3.436

>  <murcko_scaffold>  (99) 
O=C(C=CC=C1C=CC#CONC=NCC=CC=C1)N1CCOCC1

>  <max_ring_size>  (99) 
14

>  <has_macrocycle_12_20>  (99) 
True

>  <has_constrained_ring_8_11>  (99) 
False

>  <passes_basic_filters>  (99) 
True

>  <generation_notes>  (99) 
selfies_token_mutation

>  <best_score>  (99) 
nan

>  <qed_admet>  (99) 
0.5464

>  <sa_score_admet>  (99) 
3.436

>  <mw_admet>  (99) 
414.893

>  <logp_admet>  (99) 
2.1477

>  <tpsa_admet>  (99) 
75.19

>  <hbd_admet>  (99) 
2

>  <hba_admet>  (99) 
6

>  <rotatable_bonds_admet>  (99) 
3

>  <lipinski_violations>  (99) 
0

>  <veber_pass>  (99) 
True

>  <admet_score>  (99) 
0.79588

>  <synthesis_score>  (99) 
0.729333

>  <safety_proxy_score>  (99) 
1.0

>  <main_risk>  (99) 
no_major_descriptor_risk

>  <pose_score>  (99) 
0.5

>  <pose_decision>  (99) 
nan

>  <contacts_within_4A>  (99) 
nan

>  <hard_clashes_lt_1_8A>  (99) 
nan

>  <smiles>  (99) 
O=C(C=CC=C1C=CC#CONC(NC=CCl)=NCC=CC=C1)N1CCOCC1

>  <docking_score>  (99) 
nan

>  <diversity_cluster>  (99) 
scaffold_0fd555ef

>  <docking_score_scaled>  (99) 
0.0

>  <novelty_score>  (99) 
1.0

>  <final_weighted_score>  (99) 
0.493576

>  <rank>  (99) 
1444

>  <decision>  (99) 
await_docking

>  <diverse_rank>  (99) 
955

>  <selection_tier>  (99) 
await_docking

$$$$
CAND_8ad0dce611
     RDKit          3D

 68 71  0  0  0  0  0  0  0  0999 V2000
    7.0928   -4.5148   -1.6852 N   0  0  0  0  0  0  0  0  0  0  0  0
    5.9929   -4.2775   -1.3982 C   0  0  0  0  0  0  0  0  0  0  0  0
    4.5828   -4.0777   -1.0529 C   0  0  0  0  0  0  0  0  0  0  0  0
    4.2696   -2.6437   -0.6764 C   0  0  0  0  0  0  0  0  0  0  0  0
    5.1247   -1.7605   -0.7360 O   0  0  0  0  0  0  0  0  0  0  0  0
    2.9648   -2.3686   -0.2676 N   0  0  0  0  0  0  0  0  0  0  0  0
    1.8694   -3.3382   -0.1811 C   0  0  0  0  0  0  0  0  0  0  0  0
    0.6280   -2.8296   -0.9183 C   0  0  0  0  0  0  0  0  0  0  0  0
    0.1632   -1.4406   -0.4164 C   0  0  1  0  0  0  0  0  0  0  0  0
   -0.4332   -1.4919    1.0132 C   0  0  0  0  0  0  0  0  0  0  0  0
   -1.6170   -2.4528    1.2195 C   0  0  0  0  0  0  0  0  0  0  0  0
   -2.9213   -2.0089    0.5461 C   0  0  0  0  0  0  0  0  0  0  0  0
   -3.6960   -1.0006    1.4040 C   0  0  0  0  0  0  0  0  0  0  0  0
   -4.9807   -0.4948    0.7336 C   0  0  0  0  0  0  0  0  0  0  0  0
   -4.7426    0.5197   -0.3903 C   0  0  0  0  0  0  0  0  0  0  0  0
   -4.2648    1.8824    0.1314 C   0  0  0  0  0  0  0  0  0  0  0  0
   -3.1778    2.5340   -0.7279 C   0  0  0  0  0  0  0  0  0  0  0  0
   -1.8749    1.7297   -0.7276 C   0  0  0  0  0  0  0  0  0  0  0  0
   -0.7071    2.5303   -1.3023 C   0  0  0  0  0  0  0  0  0  0  0  0
    0.5389    1.6724   -1.5559 C   0  0  0  0  0  0  0  0  0  0  0  0
    1.0397    0.9557   -0.3780 N   0  0  0  0  0  0  0  0  0  0  0  0
    1.3934    1.6141    0.7899 C   0  0  0  0  0  0  0  0  0  0  0  0
    1.2747    0.9274    1.9611 N   0  0  0  0  0  0  0  0  0  0  0  0
    1.5588    1.5266    3.1321 C   0  0  0  0  0  0  0  0  0  0  0  0
    1.9888    2.7764    3.3328 N   0  0  0  0  0  0  0  0  0  0  0  0
    2.1367    3.4251    2.1712 C   0  0  0  0  0  0  0  0  0  0  0  0
    2.5905    4.7115    2.0781 N   0  0  0  0  0  0  0  0  0  0  0  0
    2.6623    5.0830    0.7639 C   0  0  0  0  0  0  0  0  0  0  0  0
    2.2383    4.0099    0.0081 C   0  0  0  0  0  0  0  0  0  0  0  0
    1.8774    2.9449    0.8922 C   0  0  0  0  0  0  0  0  0  0  0  0
    1.3793   -0.4750   -0.5676 C   0  0  1  0  0  0  0  0  0  0  0  0
    2.6277   -1.0023    0.1788 C   0  0  0  0  0  0  0  0  0  0  0  0
    3.9606   -4.3554   -1.9107 H   0  0  0  0  0  0  0  0  0  0  0  0
    4.3273   -4.7269   -0.2084 H   0  0  0  0  0  0  0  0  0  0  0  0
    1.6588   -3.5028    0.8811 H   0  0  0  0  0  0  0  0  0  0  0  0
    2.1559   -4.3039   -0.6015 H   0  0  0  0  0  0  0  0  0  0  0  0
   -0.1747   -3.5695   -0.8566 H   0  0  0  0  0  0  0  0  0  0  0  0
    0.8689   -2.7476   -1.9872 H   0  0  0  0  0  0  0  0  0  0  0  0
   -0.6254   -1.0980   -1.0959 H   0  0  0  0  0  0  0  0  0  0  0  0
    0.3461   -1.7795    1.7274 H   0  0  0  0  0  0  0  0  0  0  0  0
   -0.7597   -0.4902    1.3045 H   0  0  0  0  0  0  0  0  0  0  0  0
   -1.3550   -3.4560    0.8708 H   0  0  0  0  0  0  0  0  0  0  0  0
   -1.7906   -2.5595    2.2981 H   0  0  0  0  0  0  0  0  0  0  0  0
   -2.7222   -1.6097   -0.4518 H   0  0  0  0  0  0  0  0  0  0  0  0
   -3.5550   -2.8939    0.4072 H   0  0  0  0  0  0  0  0  0  0  0  0
   -3.9785   -1.4949    2.3424 H   0  0  0  0  0  0  0  0  0  0  0  0
   -3.0507   -0.1623    1.6821 H   0  0  0  0  0  0  0  0  0  0  0  0
   -5.6210   -0.0342    1.4962 H   0  0  0  0  0  0  0  0  0  0  0  0
   -5.5396   -1.3491    0.3329 H   0  0  0  0  0  0  0  0  0  0  0  0
   -4.0598    0.0981   -1.1323 H   0  0  0  0  0  0  0  0  0  0  0  0
   -5.6916    0.6744   -0.9197 H   0  0  0  0  0  0  0  0  0  0  0  0
   -3.9005    1.8129    1.1624 H   0  0  0  0  0  0  0  0  0  0  0  0
   -5.1281    2.5591    0.1693 H   0  0  0  0  0  0  0  0  0  0  0  0
   -2.9857    3.5384   -0.3308 H   0  0  0  0  0  0  0  0  0  0  0  0
   -3.5376    2.6607   -1.7559 H   0  0  0  0  0  0  0  0  0  0  0  0
   -2.0085    0.8162   -1.3150 H   0  0  0  0  0  0  0  0  0  0  0  0
   -1.6349    1.4315    0.2980 H   0  0  0  0  0  0  0  0  0  0  0  0
   -0.4829    3.3664   -0.6326 H   0  0  0  0  0  0  0  0  0  0  0  0
   -1.0092    2.9754   -2.2587 H   0  0  0  0  0  0  0  0  0  0  0  0
    0.2678    0.9489   -2.3366 H   0  0  0  0  0  0  0  0  0  0  0  0
    1.3375    2.2722   -2.0021 H   0  0  0  0  0  0  0  0  0  0  0  0
    1.4218    0.9186    4.0206 H   0  0  0  0  0  0  0  0  0  0  0  0
    2.8468    5.2728    2.8771 H   0  0  0  0  0  0  0  0  0  0  0  0
    3.0162    6.0651    0.4796 H   0  0  0  0  0  0  0  0  0  0  0  0
    2.2062    4.0039   -1.0714 H   0  0  0  0  0  0  0  0  0  0  0  0
    1.6717   -0.5519   -1.6272 H   0  0  0  0  0  0  0  0  0  0  0  0
    2.4763   -1.0733    1.2594 H   0  0  0  0  0  0  0  0  0  0  0  0
    3.4700   -0.3217    0.0167 H   0  0  0  0  0  0  0  0  0  0  0  0
  1  2  3  0
  2  3  1  0
  3  4  1  0
  4  5  2  0
  4  6  1  0
  6  7  1  0
  7  8  1  0
  8  9  1  0
  9 10  1  0
 10 11  1  0
 11 12  1  0
 12 13  1  0
 13 14  1  0
 14 15  1  0
 15 16  1  0
 16 17  1  0
 17 18  1  0
 18 19  1  0
 19 20  1  0
 20 21  1  0
 21 22  1  0
 22 23  2  0
 23 24  1  0
 24 25  2  0
 25 26  1  0
 26 27  1  0
 27 28  1  0
 28 29  2  0
 29 30  1  0
 21 31  1  0
 31 32  1  0
 32  6  1  0
 31  9  1  0
 30 22  1  0
 30 26  2  0
  3 33  1  0
  3 34  1  0
  7 35  1  0
  7 36  1  0
  8 37  1  0
  8 38  1  0
  9 39  1  6
 10 40  1  0
 10 41  1  0
 11 42  1  0
 11 43  1  0
 12 44  1  0
 12 45  1  0
 13 46  1  0
 13 47  1  0
 14 48  1  0
 14 49  1  0
 15 50  1  0
 15 51  1  0
 16 52  1  0
 16 53  1  0
 17 54  1  0
 17 55  1  0
 18 56  1  0
 18 57  1  0
 19 58  1  0
 19 59  1  0
 20 60  1  0
 20 61  1  0
 24 62  1  0
 27 63  1  0
 28 64  1  0
 29 65  1  0
 31 66  1  6
 32 67  1  0
 32 68  1  0
M  END
>  <candidate_id>  (100) 
CAND_8ad0dce611

>  <source_generator>  (100) 
macrocycle_linker

>  <parent_mol_id>  (100) 
JAK2_3f3d946705

>  <canonical_smiles>  (100) 
N#CCC(=O)N1CC[C@H]2CCCCCCCCCCCN(c3ncnc4[nH]ccc34)[C@H]2C1

>  <inchikey>  (100) 
AFPCEYLDERXKPS-IRLDBZIGSA-N

>  <valid_rdkit>  (100) 
True

>  <unique_flag>  (100) 
True

>  <novel_flag>  (100) 
True

>  <mw>  (100) 
436.604

>  <logp>  (100) 
4.8097

>  <tpsa>  (100) 
88.91

>  <hbd>  (100) 
1

>  <hba>  (100) 
5

>  <rotatable_bonds>  (100) 
2

>  <qed>  (100) 
0.7297

>  <sa_score>  (100) 
4.431

>  <murcko_scaffold>  (100) 
c1nc(N2CCCCCCCCCCC[C@@H]3CCNC[C@@H]32)c2cc[nH]c2n1

>  <max_ring_size>  (100) 
14

>  <has_macrocycle_12_20>  (100) 
True

>  <has_constrained_ring_8_11>  (100) 
False

>  <passes_basic_filters>  (100) 
True

>  <generation_notes>  (100) 
macrocycle_bridge_alkyl_path4_ring13

>  <best_score>  (100) 
nan

>  <qed_admet>  (100) 
0.7297

>  <sa_score_admet>  (100) 
4.431

>  <mw_admet>  (100) 
436.604

>  <logp_admet>  (100) 
4.8097

>  <tpsa_admet>  (100) 
88.91

>  <hbd_admet>  (100) 
1

>  <hba_admet>  (100) 
5

>  <rotatable_bonds_admet>  (100) 
2

>  <lipinski_violations>  (100) 
0

>  <veber_pass>  (100) 
True

>  <admet_score>  (100) 
0.878365

>  <synthesis_score>  (100) 
0.618778

>  <safety_proxy_score>  (100) 
1.0

>  <main_risk>  (100) 
no_major_descriptor_risk

>  <pose_score>  (100) 
0.5

>  <pose_decision>  (100) 
nan

>  <contacts_within_4A>  (100) 
nan

>  <hard_clashes_lt_1_8A>  (100) 
nan

>  <smiles>  (100) 
N#CCC(=O)N1CC[C@H]2CCCCCCCCCCCN(c3ncnc4[nH]ccc34)[C@H]2C1

>  <docking_score>  (100) 
nan

>  <diversity_cluster>  (100) 
scaffold_6fbeab46

>  <docking_score_scaled>  (100) 
0.0

>  <novelty_score>  (100) 
1.0

>  <final_weighted_score>  (100) 
0.49349

>  <rank>  (100) 
1445

>  <decision>  (100) 
await_docking

>  <diverse_rank>  (100) 
956

>  <selection_tier>  (100) 
await_docking

$$$$
CAND_45341a8161
     RDKit          3D

 35 36  0  0  0  0  0  0  0  0999 V2000
   -2.1711   -2.8690   -3.4801 Cl  0  0  0  0  0  0  0  0  0  0  0  0
   -1.1602   -1.7367   -2.5440 C   0  0  0  0  0  0  0  0  0  0  0  0
   -2.0777   -0.8369   -1.7527 C   0  0  0  0  0  0  0  0  0  0  0  0
   -2.3044   -0.8636   -0.4257 C   0  0  0  0  0  0  0  0  0  0  0  0
   -3.1202    0.1354    0.3338 C   0  0  0  0  0  0  0  0  0  0  0  0
   -2.3056    1.1808    0.8642 O   0  0  0  0  0  0  0  0  0  0  0  0
   -1.3059    0.7272    1.7767 C   0  0  0  0  0  0  0  0  0  0  0  0
   -0.7490    1.9263    2.4707 C   0  0  0  0  0  0  0  0  0  0  0  0
    0.4949    2.4051    2.3351 C   0  0  0  0  0  0  0  0  0  0  0  0
    1.4481    1.8764    1.5075 N   0  0  0  0  0  0  0  0  0  0  0  0
    1.5339    2.4915    0.3724 C   0  0  0  0  0  0  0  0  0  0  0  0
    2.5050    2.1545   -0.6943 C   0  0  0  0  0  0  0  0  0  0  0  0
    2.7749    0.9167   -1.1312 C   0  0  0  0  0  0  0  0  0  0  0  0
    2.1914   -0.3281   -0.6390 C   0  0  0  0  0  0  0  0  0  0  0  0
    2.6325   -0.9165    0.5220 C   0  0  0  0  0  0  0  0  0  0  0  0
    2.0415   -2.1139    0.8282 C   0  0  0  0  0  0  0  0  0  0  0  0
    1.0885   -2.6876    0.0702 N   0  0  0  0  0  0  0  0  0  0  0  0
    0.7087   -2.0258   -1.0310 C   0  0  0  0  0  0  0  0  0  0  0  0
    1.2500   -0.8704   -1.4339 N   0  0  0  0  0  0  0  0  0  0  0  0
   -0.3458   -2.5648   -1.7126 N   0  0  0  0  0  0  0  0  0  0  0  0
   -0.5712   -1.1592   -3.2643 H   0  0  0  0  0  0  0  0  0  0  0  0
   -2.5330   -0.0413   -2.3390 H   0  0  0  0  0  0  0  0  0  0  0  0
   -1.8448   -1.6367    0.1854 H   0  0  0  0  0  0  0  0  0  0  0  0
   -3.8632    0.6034   -0.3210 H   0  0  0  0  0  0  0  0  0  0  0  0
   -3.6717   -0.3544    1.1442 H   0  0  0  0  0  0  0  0  0  0  0  0
   -0.5282    0.1785    1.2378 H   0  0  0  0  0  0  0  0  0  0  0  0
   -1.7510    0.0600    2.5239 H   0  0  0  0  0  0  0  0  0  0  0  0
   -1.4302    2.4380    3.1441 H   0  0  0  0  0  0  0  0  0  0  0  0
    0.7937    3.2796    2.9113 H   0  0  0  0  0  0  0  0  0  0  0  0
    0.8989    3.3670    0.1329 H   0  0  0  0  0  0  0  0  0  0  0  0
    2.9589    3.0111   -1.1808 H   0  0  0  0  0  0  0  0  0  0  0  0
    3.4479    0.7838   -1.9735 H   0  0  0  0  0  0  0  0  0  0  0  0
    3.3854   -0.4680    1.1545 H   0  0  0  0  0  0  0  0  0  0  0  0
    2.3181   -2.6635    1.7226 H   0  0  0  0  0  0  0  0  0  0  0  0
   -0.7396   -3.3987   -1.3144 H   0  0  0  0  0  0  0  0  0  0  0  0
  1  2  1  0
  2  3  1  0
  3  4  2  3
  4  5  1  0
  5  6  1  0
  6  7  1  0
  7  8  1  0
  8  9  2  3
  9 10  1  0
 10 11  2  3
 11 12  1  0
 12 13  2  3
 13 14  1  0
 14 15  1  0
 15 16  2  0
 16 17  1  0
 17 18  2  0
 18 19  1  0
 18 20  1  0
 20  2  1  0
 19 14  2  0
  2 21  1  0
  3 22  1  0
  4 23  1  0
  5 24  1  0
  5 25  1  0
  7 26  1  0
  7 27  1  0
  8 28  1  0
  9 29  1  0
 11 30  1  0
 12 31  1  0
 13 32  1  0
 15 33  1  0
 16 34  1  0
 20 35  1  0
M  END
>  <candidate_id>  (101) 
CAND_45341a8161

>  <source_generator>  (101) 
selfies

>  <parent_mol_id>  (101) 
JAK2_522c241c10

>  <canonical_smiles>  (101) 
ClC1C=CCOCC=CN=CC=Cc2ccnc(n2)N1

>  <inchikey>  (101) 
APNURSFQDLYQHA-UHFFFAOYSA-N

>  <valid_rdkit>  (101) 
True

>  <unique_flag>  (101) 
True

>  <novel_flag>  (101) 
True

>  <mw>  (101) 
290.754

>  <logp>  (101) 
2.6375

>  <tpsa>  (101) 
59.4

>  <hbd>  (101) 
1

>  <hba>  (101) 
5

>  <rotatable_bonds>  (101) 
0

>  <qed>  (101) 
0.4532

>  <sa_score>  (101) 
2.95

>  <murcko_scaffold>  (101) 
C1=Cc2ccnc(n2)NCC=CCOCC=CN=C1

>  <max_ring_size>  (101) 
16

>  <has_macrocycle_12_20>  (101) 
True

>  <has_constrained_ring_8_11>  (101) 
False

>  <passes_basic_filters>  (101) 
True

>  <generation_notes>  (101) 
selfies_token_mutation

>  <best_score>  (101) 
nan

>  <qed_admet>  (101) 
0.4532

>  <sa_score_admet>  (101) 
2.95

>  <mw_admet>  (101) 
290.754

>  <logp_admet>  (101) 
2.6375

>  <tpsa_admet>  (101) 
59.4

>  <hbd_admet>  (101) 
1

>  <hba_admet>  (101) 
5

>  <rotatable_bonds_admet>  (101) 
0

>  <lipinski_violations>  (101) 
0

>  <veber_pass>  (101) 
True

>  <admet_score>  (101) 
0.75394

>  <synthesis_score>  (101) 
0.783333

>  <safety_proxy_score>  (101) 
1.0

>  <main_risk>  (101) 
no_major_descriptor_risk

>  <pose_score>  (101) 
0.5

>  <pose_decision>  (101) 
nan

>  <contacts_within_4A>  (101) 
nan

>  <hard_clashes_lt_1_8A>  (101) 
nan

>  <smiles>  (101) 
ClC1C=CCOCC=CN=CC=Cc2ccnc(n2)N1

>  <docking_score>  (101) 
nan

>  <diversity_cluster>  (101) 
scaffold_e84e0b89

>  <docking_score_scaled>  (101) 
0.0

>  <novelty_score>  (101) 
1.0

>  <final_weighted_score>  (101) 
0.493288

>  <rank>  (101) 
1457

>  <decision>  (101) 
await_docking

>  <diverse_rank>  (101) 
960

>  <selection_tier>  (101) 
await_docking

$$$$
CAND_03fca0654a
     RDKit          3D

 48 51  0  0  0  0  0  0  0  0999 V2000
   -0.0619   -4.0890    2.3964 C   0  0  0  0  0  0  0  0  0  0  0  0
   -0.8476   -3.2233    1.4683 C   0  0  0  0  0  0  0  0  0  0  0  0
   -2.2187   -3.3272    1.3731 C   0  0  0  0  0  0  0  0  0  0  0  0
   -2.9790   -2.5541    0.5788 N   0  0  0  0  0  0  0  0  0  0  0  0
   -2.3358   -1.6615   -0.1778 C   0  0  0  0  0  0  0  0  0  0  0  0
   -1.0088   -1.5152   -0.1868 N   0  0  0  0  0  0  0  0  0  0  0  0
   -0.2697   -2.2679    0.6473 C   0  0  0  0  0  0  0  0  0  0  0  0
    1.1095   -1.9973    0.7582 N   0  0  0  0  0  0  0  0  0  0  0  0
    1.9120   -1.5676   -0.2386 C   0  0  0  0  0  0  0  0  0  0  0  0
    2.3282   -2.3244   -1.2551 N   0  0  0  0  0  0  0  0  0  0  0  0
    3.1673   -1.5365   -1.9322 N   0  0  0  0  0  0  0  0  0  0  0  0
    3.3505   -0.3053   -1.3691 C   0  0  0  0  0  0  0  0  0  0  0  0
    4.2737    0.6908   -1.9580 C   0  0  0  0  0  0  0  0  0  0  0  0
    2.5002   -0.2653   -0.2752 C   0  0  0  0  0  0  0  0  0  0  0  0
    2.2204    0.8824    0.6472 C   0  0  0  0  0  0  0  0  0  0  0  0
    1.9364    2.2050   -0.0847 C   0  0  0  0  0  0  0  0  0  0  0  0
    0.9638    3.1187    0.6767 C   0  0  0  0  0  0  0  0  0  0  0  0
   -0.4712    2.6484    0.6614 C   0  0  0  0  0  0  0  0  0  0  0  0
   -0.8674    1.8534   -0.3588 N   0  0  0  0  0  0  0  0  0  0  0  0
   -2.1445    1.4047   -0.3567 C   0  0  0  0  0  0  0  0  0  0  0  0
   -3.0706    1.7696    0.5622 N   0  0  0  0  0  0  0  0  0  0  0  0
   -2.6436    2.5952    1.5411 C   0  0  0  0  0  0  0  0  0  0  0  0
   -1.3529    3.0595    1.6381 C   0  0  0  0  0  0  0  0  0  0  0  0
   -0.9813    3.8700    2.6367 F   0  0  0  0  0  0  0  0  0  0  0  0
   -2.5454    0.4093   -1.4521 C   0  0  2  0  0  0  0  0  0  0  0  0
   -3.5565    1.0618   -2.3959 C   0  0  0  0  0  0  0  0  0  0  0  0
   -3.1248   -0.8146   -0.9145 N   0  0  0  0  0  0  0  0  0  0  0  0
    0.7376   -4.6062    1.8559 H   0  0  0  0  0  0  0  0  0  0  0  0
   -0.6924   -4.8567    2.8579 H   0  0  0  0  0  0  0  0  0  0  0  0
    0.3749   -3.4877    3.2000 H   0  0  0  0  0  0  0  0  0  0  0  0
   -2.7748   -4.0504    1.9630 H   0  0  0  0  0  0  0  0  0  0  0  0
    1.3284   -1.7105    1.7009 H   0  0  0  0  0  0  0  0  0  0  0  0
    3.5959   -1.9109   -2.7714 H   0  0  0  0  0  0  0  0  0  0  0  0
    5.0458    0.2087   -2.5666 H   0  0  0  0  0  0  0  0  0  0  0  0
    4.7794    1.2621   -1.1731 H   0  0  0  0  0  0  0  0  0  0  0  0
    3.7242    1.3902   -2.5956 H   0  0  0  0  0  0  0  0  0  0  0  0
    1.3715    0.6254    1.2908 H   0  0  0  0  0  0  0  0  0  0  0  0
    3.0789    1.0169    1.3170 H   0  0  0  0  0  0  0  0  0  0  0  0
    1.5581    2.0259   -1.0990 H   0  0  0  0  0  0  0  0  0  0  0  0
    2.8865    2.7410   -0.2061 H   0  0  0  0  0  0  0  0  0  0  0  0
    0.9874    4.1165    0.2220 H   0  0  0  0  0  0  0  0  0  0  0  0
    1.3104    3.2234    1.7121 H   0  0  0  0  0  0  0  0  0  0  0  0
   -3.3901    2.8791    2.2749 H   0  0  0  0  0  0  0  0  0  0  0  0
   -1.6571    0.1666   -2.0506 H   0  0  0  0  0  0  0  0  0  0  0  0
   -3.1486    1.9778   -2.8375 H   0  0  0  0  0  0  0  0  0  0  0  0
   -3.8200    0.3798   -3.2120 H   0  0  0  0  0  0  0  0  0  0  0  0
   -4.4851    1.3259   -1.8762 H   0  0  0  0  0  0  0  0  0  0  0  0
   -4.0930   -0.8365   -0.6362 H   0  0  0  0  0  0  0  0  0  0  0  0
  1  2  1  0
  2  3  2  0
  3  4  1  0
  4  5  2  0
  5  6  1  0
  6  7  2  0
  7  8  1  0
  8  9  1  0
  9 10  2  0
 10 11  1  0
 11 12  1  0
 12 13  1  0
 12 14  2  0
 14 15  1  0
 15 16  1  0
 16 17  1  0
 17 18  1  0
 18 19  2  0
 19 20  1  0
 20 21  2  0
 21 22  1  0
 22 23  2  0
 23 24  1  0
 20 25  1  0
 25 26  1  0
 25 27  1  0
  7  2  1  0
 14  9  1  0
 23 18  1  0
 27  5  1  0
  1 28  1  0
  1 29  1  0
  1 30  1  0
  3 31  1  0
  8 32  1  0
 11 33  1  0
 13 34  1  0
 13 35  1  0
 13 36  1  0
 15 37  1  0
 15 38  1  0
 16 39  1  0
 16 40  1  0
 17 41  1  0
 17 42  1  0
 22 43  1  0
 25 44  1  6
 26 45  1  0
 26 46  1  0
 26 47  1  0
 27 48  1  0
M  END
>  <candidate_id>  (102) 
CAND_03fca0654a

>  <source_generator>  (102) 
macrocycle_linker

>  <parent_mol_id>  (102) 
JAK2_f8ef9f9f68

>  <canonical_smiles>  (102) 
Cc1cnc2nc1Nc1n[nH]c(C)c1CCCc1nc(ncc1F)[C@H](C)N2

>  <inchikey>  (102) 
RCVWNMRFTIJXST-NSHDSACASA-N

>  <valid_rdkit>  (102) 
True

>  <unique_flag>  (102) 
True

>  <novel_flag>  (102) 
True

>  <mw>  (102) 
368.42

>  <logp>  (102) 
3.151

>  <tpsa>  (102) 
104.3

>  <hbd>  (102) 
3

>  <hba>  (102) 
7

>  <rotatable_bonds>  (102) 
0

>  <qed>  (102) 
0.5597

>  <sa_score>  (102) 
3.552

>  <murcko_scaffold>  (102) 
c1cc2nc(n1)CNc1nccc(n1)Nc1n[nH]cc1CCC2

>  <max_ring_size>  (102) 
14

>  <has_macrocycle_12_20>  (102) 
True

>  <has_constrained_ring_8_11>  (102) 
False

>  <passes_basic_filters>  (102) 
True

>  <generation_notes>  (102) 
macrocycle_bridge_oxa_aza_path10_ring13

>  <best_score>  (102) 
nan

>  <qed_admet>  (102) 
0.5597

>  <sa_score_admet>  (102) 
3.552

>  <mw_admet>  (102) 
368.42

>  <logp_admet>  (102) 
3.151

>  <tpsa_admet>  (102) 
104.3

>  <hbd_admet>  (102) 
3

>  <hba_admet>  (102) 
7

>  <rotatable_bonds_admet>  (102) 
0

>  <lipinski_violations>  (102) 
0

>  <veber_pass>  (102) 
True

>  <admet_score>  (102) 
0.801865

>  <synthesis_score>  (102) 
0.716444

>  <safety_proxy_score>  (102) 
1.0

>  <main_risk>  (102) 
no_major_descriptor_risk

>  <pose_score>  (102) 
0.5

>  <pose_decision>  (102) 
nan

>  <contacts_within_4A>  (102) 
nan

>  <hard_clashes_lt_1_8A>  (102) 
nan

>  <smiles>  (102) 
Cc1cnc2nc1Nc1n[nH]c(C)c1CCCc1nc(ncc1F)[C@H](C)N2

>  <docking_score>  (102) 
nan

>  <diversity_cluster>  (102) 
scaffold_6f8b59f7

>  <docking_score_scaled>  (102) 
0.0

>  <novelty_score>  (102) 
1.0

>  <final_weighted_score>  (102) 
0.49284

>  <rank>  (102) 
1485

>  <decision>  (102) 
await_docking

>  <diverse_rank>  (102) 
971

>  <selection_tier>  (102) 
await_docking

$$$$
CAND_95aaa694cd
     RDKit          3D

 48 51  0  0  0  0  0  0  0  0999 V2000
    3.9279    0.2487   -1.9135 C   0  0  0  0  0  0  0  0  0  0  0  0
    2.7595    0.7330   -1.0520 C   0  0  2  0  0  0  0  0  0  0  0  0
    3.0769    2.0830   -0.5646 N   0  0  0  0  0  0  0  0  0  0  0  0
    2.0204    2.9037   -0.1850 C   0  0  0  0  0  0  0  0  0  0  0  0
    2.2552    4.2313    0.1764 C   0  0  0  0  0  0  0  0  0  0  0  0
    1.2825    5.0986    0.5459 N   0  0  0  0  0  0  0  0  0  0  0  0
    0.0350    4.5735    0.5263 C   0  0  0  0  0  0  0  0  0  0  0  0
   -0.2484    3.2522    0.1748 C   0  0  0  0  0  0  0  0  0  0  0  0
    0.7591    2.4276   -0.1953 N   0  0  0  0  0  0  0  0  0  0  0  0
   -1.5764    2.7831    0.2552 N   0  0  0  0  0  0  0  0  0  0  0  0
   -2.1053    1.7319   -0.4070 C   0  0  0  0  0  0  0  0  0  0  0  0
   -3.0835    0.8926    0.1815 C   0  0  0  0  0  0  0  0  0  0  0  0
   -3.3037   -0.1182   -0.7308 C   0  0  0  0  0  0  0  0  0  0  0  0
   -2.5592    0.2293   -1.8246 N   0  0  0  0  0  0  0  0  0  0  0  0
   -1.8361    1.3420   -1.6540 N   0  0  0  0  0  0  0  0  0  0  0  0
   -4.1180   -1.3610   -0.6505 C   0  0  0  0  0  0  0  0  0  0  0  0
   -3.3584   -2.6536   -0.9813 C   0  0  0  0  0  0  0  0  0  0  0  0
   -2.3223   -3.1172    0.0569 C   0  0  0  0  0  0  0  0  0  0  0  0
   -1.0506   -2.2702    0.0751 C   0  0  0  0  0  0  0  0  0  0  0  0
    0.0855   -2.9052    0.8873 C   0  0  0  0  0  0  0  0  0  0  0  0
    1.2747   -1.9804    1.0011 C   0  0  0  0  0  0  0  0  0  0  0  0
    1.5246   -1.1474   -0.0371 N   0  0  0  0  0  0  0  0  0  0  0  0
    2.5371   -0.2602    0.0919 C   0  0  0  0  0  0  0  0  0  0  0  0
    3.3824   -0.2235    1.1526 N   0  0  0  0  0  0  0  0  0  0  0  0
    3.1266   -1.1067    2.1420 C   0  0  0  0  0  0  0  0  0  0  0  0
    2.0829   -2.0026    2.1171 C   0  0  0  0  0  0  0  0  0  0  0  0
    1.8693   -2.8438    3.1364 F   0  0  0  0  0  0  0  0  0  0  0  0
    4.0920    0.9265   -2.7586 H   0  0  0  0  0  0  0  0  0  0  0  0
    3.7337   -0.7523   -2.3144 H   0  0  0  0  0  0  0  0  0  0  0  0
    4.8622    0.2040   -1.3413 H   0  0  0  0  0  0  0  0  0  0  0  0
    1.8699    0.7516   -1.6952 H   0  0  0  0  0  0  0  0  0  0  0  0
    3.8877    2.1250    0.0418 H   0  0  0  0  0  0  0  0  0  0  0  0
    3.2600    4.6393    0.1691 H   0  0  0  0  0  0  0  0  0  0  0  0
   -0.7555    5.2591    0.8109 H   0  0  0  0  0  0  0  0  0  0  0  0
   -2.0228    3.0920    1.1065 H   0  0  0  0  0  0  0  0  0  0  0  0
   -3.5030    0.9619    1.1743 H   0  0  0  0  0  0  0  0  0  0  0  0
   -2.4688   -0.2634   -2.7064 H   0  0  0  0  0  0  0  0  0  0  0  0
   -4.5599   -1.4486    0.3497 H   0  0  0  0  0  0  0  0  0  0  0  0
   -4.9569   -1.2620   -1.3513 H   0  0  0  0  0  0  0  0  0  0  0  0
   -2.8843   -2.5809   -1.9678 H   0  0  0  0  0  0  0  0  0  0  0  0
   -4.1072   -3.4525   -1.0647 H   0  0  0  0  0  0  0  0  0  0  0  0
   -2.7747   -3.1354    1.0555 H   0  0  0  0  0  0  0  0  0  0  0  0
   -2.0499   -4.1525   -0.1844 H   0  0  0  0  0  0  0  0  0  0  0  0
   -0.7134   -2.1026   -0.9554 H   0  0  0  0  0  0  0  0  0  0  0  0
   -1.2707   -1.2922    0.5121 H   0  0  0  0  0  0  0  0  0  0  0  0
   -0.2885   -3.1460    1.8898 H   0  0  0  0  0  0  0  0  0  0  0  0
    0.4111   -3.8410    0.4187 H   0  0  0  0  0  0  0  0  0  0  0  0
    3.8013   -1.0704    2.9906 H   0  0  0  0  0  0  0  0  0  0  0  0
  1  2  1  0
  2  3  1  0
  3  4  1  0
  4  5  2  0
  5  6  1  0
  6  7  2  0
  7  8  1  0
  8  9  2  0
  8 10  1  0
 10 11  1  0
 11 12  1  0
 12 13  2  0
 13 14  1  0
 14 15  1  0
 13 16  1  0
 16 17  1  0
 17 18  1  0
 18 19  1  0
 19 20  1  0
 20 21  1  0
 21 22  2  0
 22 23  1  0
 23 24  2  0
 24 25  1  0
 25 26  2  0
 26 27  1  0
 23  2  1  0
  9  4  1  0
 15 11  2  0
 26 21  1  0
  1 28  1  0
  1 29  1  0
  1 30  1  0
  2 31  1  6
  3 32  1  0
  5 33  1  0
  7 34  1  0
 10 35  1  0
 12 36  1  0
 14 37  1  0
 16 38  1  0
 16 39  1  0
 17 40  1  0
 17 41  1  0
 18 42  1  0
 18 43  1  0
 19 44  1  0
 19 45  1  0
 20 46  1  0
 20 47  1  0
 25 48  1  0
M  END
>  <candidate_id>  (103) 
CAND_95aaa694cd

>  <source_generator>  (103) 
macrocycle_linker

>  <parent_mol_id>  (103) 
JAK2_6111c0246b

>  <canonical_smiles>  (103) 
C[C@@H]1Nc2cncc(n2)Nc2cc([nH]n2)CCCCCc2nc1ncc2F

>  <inchikey>  (103) 
CFZSKAWACPATNM-NSHDSACASA-N

>  <valid_rdkit>  (103) 
True

>  <unique_flag>  (103) 
True

>  <novel_flag>  (103) 
True

>  <mw>  (103) 
368.42

>  <logp>  (103) 
3.3144

>  <tpsa>  (103) 
104.3

>  <hbd>  (103) 
3

>  <hba>  (103) 
7

>  <rotatable_bonds>  (103) 
0

>  <qed>  (103) 
0.559

>  <sa_score>  (103) 
3.552

>  <murcko_scaffold>  (103) 
c1cc2nc(n1)CNc1cncc(n1)Nc1cc([nH]n1)CCCCC2

>  <max_ring_size>  (103) 
17

>  <has_macrocycle_12_20>  (103) 
True

>  <has_constrained_ring_8_11>  (103) 
False

>  <passes_basic_filters>  (103) 
True

>  <generation_notes>  (103) 
macrocycle_bridge_alkyl_path12_ring16

>  <best_score>  (103) 
nan

>  <qed_admet>  (103) 
0.559

>  <sa_score_admet>  (103) 
3.552

>  <mw_admet>  (103) 
368.42

>  <logp_admet>  (103) 
3.3144

>  <tpsa_admet>  (103) 
104.3

>  <hbd_admet>  (103) 
3

>  <hba_admet>  (103) 
7

>  <rotatable_bonds_admet>  (103) 
0

>  <lipinski_violations>  (103) 
0

>  <veber_pass>  (103) 
True

>  <admet_score>  (103) 
0.80155

>  <synthesis_score>  (103) 
0.716444

>  <safety_proxy_score>  (103) 
1.0

>  <main_risk>  (103) 
no_major_descriptor_risk

>  <pose_score>  (103) 
0.5

>  <pose_decision>  (103) 
nan

>  <contacts_within_4A>  (103) 
nan

>  <hard_clashes_lt_1_8A>  (103) 
nan

>  <smiles>  (103) 
C[C@@H]1Nc2cncc(n2)Nc2cc([nH]n2)CCCCCc2nc1ncc2F

>  <docking_score>  (103) 
nan

>  <diversity_cluster>  (103) 
scaffold_dd2e8e8e

>  <docking_score_scaled>  (103) 
0.0

>  <novelty_score>  (103) 
1.0

>  <final_weighted_score>  (103) 
0.492777

>  <rank>  (103) 
1491

>  <decision>  (103) 
await_docking

>  <diverse_rank>  (103) 
974

>  <selection_tier>  (103) 
await_docking

$$$$
CAND_a8d00072a6
     RDKit          3D

 47 50  0  0  0  0  0  0  0  0999 V2000
    3.3617    0.5028   -1.8674 C   0  0  0  0  0  0  0  0  0  0  0  0
    2.1529    0.8671   -0.9970 C   0  0  2  0  0  0  0  0  0  0  0  0
    2.3121    2.2539   -0.5733 N   0  0  0  0  0  0  0  0  0  0  0  0
    1.2267    3.0061   -0.1577 C   0  0  0  0  0  0  0  0  0  0  0  0
    1.3412    4.3968   -0.0832 C   0  0  0  0  0  0  0  0  0  0  0  0
    0.3410    5.2177    0.3044 N   0  0  0  0  0  0  0  0  0  0  0  0
   -0.8039    4.5768    0.6288 C   0  0  0  0  0  0  0  0  0  0  0  0
   -0.9669    3.1870    0.5826 C   0  0  0  0  0  0  0  0  0  0  0  0
    0.0520    2.4067    0.1446 N   0  0  0  0  0  0  0  0  0  0  0  0
   -2.1972    2.6456    1.0007 N   0  0  0  0  0  0  0  0  0  0  0  0
   -2.7153    1.4075    0.9062 C   0  0  0  0  0  0  0  0  0  0  0  0
   -2.3238    0.3710    0.0261 C   0  0  0  0  0  0  0  0  0  0  0  0
   -3.1473   -0.6963    0.3207 C   0  0  0  0  0  0  0  0  0  0  0  0
   -3.9555   -0.2435    1.3243 N   0  0  0  0  0  0  0  0  0  0  0  0
   -3.7449    1.0347    1.6710 N   0  0  0  0  0  0  0  0  0  0  0  0
   -3.2997   -1.9527   -0.1013 O   0  0  0  0  0  0  0  0  0  0  0  0
   -2.6632   -2.3268   -1.3219 C   0  0  0  0  0  0  0  0  0  0  0  0
   -1.1657   -2.5891   -1.1770 C   0  0  0  0  0  0  0  0  0  0  0  0
   -0.7989   -3.4807    0.0174 C   0  0  0  0  0  0  0  0  0  0  0  0
    0.7187   -3.6139    0.2177 C   0  0  0  0  0  0  0  0  0  0  0  0
    1.3420   -2.3258    0.6907 C   0  0  0  0  0  0  0  0  0  0  0  0
    1.6071   -1.3943   -0.2615 N   0  0  0  0  0  0  0  0  0  0  0  0
    2.0148   -0.1545    0.1274 C   0  0  0  0  0  0  0  0  0  0  0  0
    2.2536    0.1433    1.4687 C   0  0  0  0  0  0  0  0  0  0  0  0
    2.0220   -0.8359    2.4339 C   0  0  0  0  0  0  0  0  0  0  0  0
    1.5449   -2.0765    2.0400 C   0  0  0  0  0  0  0  0  0  0  0  0
    1.2711   -3.0061    2.9655 F   0  0  0  0  0  0  0  0  0  0  0  0
    3.4680    1.2079   -2.6996 H   0  0  0  0  0  0  0  0  0  0  0  0
    4.2930    0.5302   -1.2892 H   0  0  0  0  0  0  0  0  0  0  0  0
    3.2622   -0.5024   -2.2916 H   0  0  0  0  0  0  0  0  0  0  0  0
    1.2606    0.7882   -1.6332 H   0  0  0  0  0  0  0  0  0  0  0  0
    3.2332    2.5592   -0.2941 H   0  0  0  0  0  0  0  0  0  0  0  0
    2.2671    4.8951   -0.3498 H   0  0  0  0  0  0  0  0  0  0  0  0
   -1.6132    5.2258    0.9472 H   0  0  0  0  0  0  0  0  0  0  0  0
   -2.6705    3.2267    1.6809 H   0  0  0  0  0  0  0  0  0  0  0  0
   -1.5339    0.4114   -0.7078 H   0  0  0  0  0  0  0  0  0  0  0  0
   -4.6825   -0.7658    1.7974 H   0  0  0  0  0  0  0  0  0  0  0  0
   -2.8581   -1.5819   -2.1039 H   0  0  0  0  0  0  0  0  0  0  0  0
   -3.1493   -3.2530   -1.6499 H   0  0  0  0  0  0  0  0  0  0  0  0
   -0.7894   -3.0383   -2.1039 H   0  0  0  0  0  0  0  0  0  0  0  0
   -0.6700   -1.6228   -1.0838 H   0  0  0  0  0  0  0  0  0  0  0  0
   -1.2515   -3.0944    0.9382 H   0  0  0  0  0  0  0  0  0  0  0  0
   -1.2207   -4.4790   -0.1508 H   0  0  0  0  0  0  0  0  0  0  0  0
    0.9224   -4.4101    0.9436 H   0  0  0  0  0  0  0  0  0  0  0  0
    1.1968   -3.9223   -0.7200 H   0  0  0  0  0  0  0  0  0  0  0  0
    2.5795    1.1305    1.7762 H   0  0  0  0  0  0  0  0  0  0  0  0
    2.1765   -0.6258    3.4867 H   0  0  0  0  0  0  0  0  0  0  0  0
  1  2  1  0
  2  3  1  0
  3  4  1  0
  4  5  2  0
  5  6  1  0
  6  7  2  0
  7  8  1  0
  8  9  2  0
  8 10  1  0
 10 11  1  0
 11 12  1  0
 12 13  2  0
 13 14  1  0
 14 15  1  0
 13 16  1  0
 16 17  1  0
 17 18  1  0
 18 19  1  0
 19 20  1  0
 20 21  1  0
 21 22  2  0
 22 23  1  0
 23 24  2  0
 24 25  1  0
 25 26  2  0
 26 27  1  0
 23  2  1  0
  9  4  1  0
 15 11  2  0
 26 21  1  0
  1 28  1  0
  1 29  1  0
  1 30  1  0
  2 31  1  6
  3 32  1  0
  5 33  1  0
  7 34  1  0
 10 35  1  0
 12 36  1  0
 14 37  1  0
 17 38  1  0
 17 39  1  0
 18 40  1  0
 18 41  1  0
 19 42  1  0
 19 43  1  0
 20 44  1  0
 20 45  1  0
 24 46  1  0
 25 47  1  0
M  END
>  <candidate_id>  (104) 
CAND_a8d00072a6

>  <source_generator>  (104) 
macrocycle_linker

>  <parent_mol_id>  (104) 
JAK2_5244fcd33d

>  <canonical_smiles>  (104) 
C[C@@H]1Nc2cncc(n2)Nc2cc([nH]n2)OCCCCc2nc1ccc2F

>  <inchikey>  (104) 
DKMFNPTVKXERFU-NSHDSACASA-N

>  <valid_rdkit>  (104) 
True

>  <unique_flag>  (104) 
True

>  <novel_flag>  (104) 
True

>  <mw>  (104) 
369.404

>  <logp>  (104) 
3.3656

>  <tpsa>  (104) 
100.64

>  <hbd>  (104) 
3

>  <hba>  (104) 
7

>  <rotatable_bonds>  (104) 
0

>  <qed>  (104) 
0.5584

>  <sa_score>  (104) 
3.558

>  <murcko_scaffold>  (104) 
c1cc2nc(c1)CNc1cncc(n1)Nc1cc([nH]n1)OCCCC2

>  <max_ring_size>  (104) 
17

>  <has_macrocycle_12_20>  (104) 
True

>  <has_constrained_ring_8_11>  (104) 
False

>  <passes_basic_filters>  (104) 
True

>  <generation_notes>  (104) 
macrocycle_bridge_oxa_aza_path13_ring16

>  <best_score>  (104) 
nan

>  <qed_admet>  (104) 
0.5584

>  <sa_score_admet>  (104) 
3.558

>  <mw_admet>  (104) 
369.404

>  <logp_admet>  (104) 
3.3656

>  <tpsa_admet>  (104) 
100.64

>  <hbd_admet>  (104) 
3

>  <hba_admet>  (104) 
7

>  <rotatable_bonds_admet>  (104) 
0

>  <lipinski_violations>  (104) 
0

>  <veber_pass>  (104) 
True

>  <admet_score>  (104) 
0.80128

>  <synthesis_score>  (104) 
0.715778

>  <safety_proxy_score>  (104) 
1.0

>  <main_risk>  (104) 
no_major_descriptor_risk

>  <pose_score>  (104) 
0.5

>  <pose_decision>  (104) 
nan

>  <contacts_within_4A>  (104) 
nan

>  <hard_clashes_lt_1_8A>  (104) 
nan

>  <smiles>  (104) 
C[C@@H]1Nc2cncc(n2)Nc2cc([nH]n2)OCCCCc2nc1ccc2F

>  <docking_score>  (104) 
nan

>  <diversity_cluster>  (104) 
scaffold_ca5d78e7

>  <docking_score_scaled>  (104) 
0.0

>  <novelty_score>  (104) 
1.0

>  <final_weighted_score>  (104) 
0.492623

>  <rank>  (104) 
1502

>  <decision>  (104) 
await_docking

>  <diverse_rank>  (104) 
977

>  <selection_tier>  (104) 
await_docking

$$$$
CAND_f638f4e1fc
     RDKit          3D

 30 31  0  0  0  0  0  0  0  0999 V2000
    3.1473   -3.2263    1.2362 F   0  0  0  0  0  0  0  0  0  0  0  0
    2.6048   -2.3664    2.1721 N   0  0  0  0  0  0  0  0  0  0  0  0
    1.7911   -1.3182    1.5536 C   0  0  0  0  0  0  0  0  0  0  0  0
    0.7221   -1.8411    0.6995 N   0  0  0  0  0  0  0  0  0  0  0  0
    1.0683   -2.0726   -0.5168 C   0  0  0  0  0  0  0  0  0  0  0  0
    0.0916   -2.3811   -1.5860 C   0  0  0  0  0  0  0  0  0  0  0  0
   -1.0458   -1.7504   -1.5951 C   0  0  0  0  0  0  0  0  0  0  0  0
   -2.1053   -0.9990   -1.5127 C   0  0  0  0  0  0  0  0  0  0  0  0
   -2.0805    0.2963   -0.8121 C   0  0  0  0  0  0  0  0  0  0  0  0
   -3.1057    0.5721    0.1062 C   0  0  0  0  0  0  0  0  0  0  0  0
   -3.1259    1.7754    0.8205 C   0  0  0  0  0  0  0  0  0  0  0  0
   -2.1252    2.7258    0.6221 C   0  0  0  0  0  0  0  0  0  0  0  0
   -1.1083    2.4814   -0.2982 C   0  0  0  0  0  0  0  0  0  0  0  0
   -1.0859    1.2724   -1.0000 C   0  0  0  0  0  0  0  0  0  0  0  0
   -0.1314    1.0963   -2.0374 O   0  0  0  0  0  0  0  0  0  0  0  0
    1.2319    1.4091   -1.9768 C   0  0  0  0  0  0  0  0  0  0  0  0
    2.0869    1.4001   -1.0089 N   0  0  0  0  0  0  0  0  0  0  0  0
    1.6589    0.9803    0.1746 N   0  0  0  0  0  0  0  0  0  0  0  0
    2.8889   -0.0328    0.8100 S   0  0  0  0  0  4  0  0  0  0  0  0
    3.3490   -1.8699    2.6545 H   0  0  0  0  0  0  0  0  0  0  0  0
    1.2917   -0.7886    2.3734 H   0  0  0  0  0  0  0  0  0  0  0  0
    2.1171   -2.0510   -0.8631 H   0  0  0  0  0  0  0  0  0  0  0  0
    0.4697   -2.8824   -2.4647 H   0  0  0  0  0  0  0  0  0  0  0  0
   -3.0728   -1.4008   -1.7867 H   0  0  0  0  0  0  0  0  0  0  0  0
   -3.8817   -0.1649    0.2955 H   0  0  0  0  0  0  0  0  0  0  0  0
   -3.9122    1.9608    1.5462 H   0  0  0  0  0  0  0  0  0  0  0  0
   -2.1251    3.6516    1.1890 H   0  0  0  0  0  0  0  0  0  0  0  0
   -0.3191    3.2116   -0.4534 H   0  0  0  0  0  0  0  0  0  0  0  0
    1.5493    1.6638   -3.0001 H   0  0  0  0  0  0  0  0  0  0  0  0
    3.1563    0.6485    1.9444 H   0  0  0  0  0  0  0  0  0  0  0  0
  1  2  1  0
  2  3  1  0
  3  4  1  0
  4  5  2  3
  5  6  1  0
  6  7  2  0
  7  8  2  0
  8  9  1  0
  9 10  2  0
 10 11  1  0
 11 12  2  0
 12 13  1  0
 13 14  2  0
 14 15  1  0
 15 16  1  0
 16 17  2  3
 17 18  1  0
 18 19  2  3
 19  3  1  0
 14  9  1  0
  2 20  1  0
  3 21  1  0
  5 22  1  0
  6 23  1  0
  8 24  1  0
 10 25  1  0
 11 26  1  0
 12 27  1  0
 13 28  1  0
 16 29  1  0
 19 30  1  0
M  END
>  <candidate_id>  (105) 
CAND_f638f4e1fc

>  <source_generator>  (105) 
selfies

>  <parent_mol_id>  (105) 
JAK2_4c13d3aa84

>  <canonical_smiles>  (105) 
FNC1N=CC=C=Cc2ccccc2OC=NN=[SH]1

>  <inchikey>  (105) 
HQQUNIUZCNHFII-UHFFFAOYSA-N

>  <valid_rdkit>  (105) 
True

>  <unique_flag>  (105) 
True

>  <novel_flag>  (105) 
True

>  <mw>  (105) 
278.312

>  <logp>  (105) 
2.0176

>  <tpsa>  (105) 
58.34

>  <hbd>  (105) 
2

>  <hba>  (105) 
5

>  <rotatable_bonds>  (105) 
1

>  <qed>  (105) 
0.4689

>  <sa_score>  (105) 
3.075

>  <murcko_scaffold>  (105) 
C1=CC=NC[SH]=NN=COc2ccccc2C=1

>  <max_ring_size>  (105) 
13

>  <has_macrocycle_12_20>  (105) 
True

>  <has_constrained_ring_8_11>  (105) 
False

>  <passes_basic_filters>  (105) 
True

>  <generation_notes>  (105) 
selfies_token_mutation

>  <best_score>  (105) 
nan

>  <qed_admet>  (105) 
0.4689

>  <sa_score_admet>  (105) 
3.075

>  <mw_admet>  (105) 
278.312

>  <logp_admet>  (105) 
2.0176

>  <tpsa_admet>  (105) 
58.34

>  <hbd_admet>  (105) 
2

>  <hba_admet>  (105) 
5

>  <rotatable_bonds_admet>  (105) 
1

>  <lipinski_violations>  (105) 
0

>  <veber_pass>  (105) 
True

>  <admet_score>  (105) 
0.761005

>  <synthesis_score>  (105) 
0.769444

>  <safety_proxy_score>  (105) 
1.0

>  <main_risk>  (105) 
no_major_descriptor_risk

>  <pose_score>  (105) 
0.5

>  <pose_decision>  (105) 
nan

>  <contacts_within_4A>  (105) 
nan

>  <hard_clashes_lt_1_8A>  (105) 
nan

>  <smiles>  (105) 
FNC1N=CC=C=Cc2ccccc2OC=NN=[SH]1

>  <docking_score>  (105) 
nan

>  <diversity_cluster>  (105) 
scaffold_b9ffd7ee

>  <docking_score_scaled>  (105) 
0.0

>  <novelty_score>  (105) 
1.0

>  <final_weighted_score>  (105) 
0.492618

>  <rank>  (105) 
1504

>  <decision>  (105) 
await_docking

>  <diverse_rank>  (105) 
979

>  <selection_tier>  (105) 
await_docking

$$$$
CAND_457797d542
     RDKit          3D

 57 58  0  0  0  0  0  0  0  0999 V2000
   -5.0695   -2.0766   -0.9371 C   0  0  0  0  0  0  0  0  0  0  0  0
   -4.0823   -1.3331   -0.4017 C   0  0  0  0  0  0  0  0  0  0  0  0
   -4.3199   -0.1243    0.2355 N   0  0  0  0  0  0  0  0  0  0  0  0
   -5.4046    0.5424    0.7605 C   0  0  0  0  0  0  0  0  0  0  0  0
   -6.5524   -0.2586    1.3230 C   0  0  0  0  0  0  0  0  0  0  0  0
   -5.4301    1.8901    0.8596 C   0  0  0  0  0  0  0  0  0  0  0  0
   -4.4311    2.8760    0.3187 C   0  0  0  0  0  0  0  0  0  0  0  0
   -3.0851    2.5175    0.6849 N   0  0  0  0  0  0  0  0  0  0  0  0
   -2.0520    2.3105   -0.1724 C   0  0  0  0  0  0  0  0  0  0  0  0
   -0.8728    2.0121    0.2329 N   0  0  0  0  0  0  0  0  0  0  0  0
    0.0712    1.6927   -0.8483 C   0  0  0  0  0  0  0  0  0  0  0  0
    0.9859    0.5995   -0.5882 O   0  0  0  0  0  0  0  0  0  0  0  0
    0.2855   -0.6206   -0.7513 N   0  0  0  0  0  0  0  0  0  0  0  0
    1.0354   -1.5557   -1.6087 C   0  0  0  0  0  0  0  0  0  0  0  0
    2.2182   -2.2022   -0.8723 C   0  0  0  0  0  0  0  0  0  0  0  0
    3.1595   -1.2197   -0.3694 N   0  0  0  0  0  0  0  0  0  0  0  0
    4.5057   -1.4464   -0.2921 C   0  0  0  0  0  0  0  0  0  0  0  0
    5.0406   -2.4965   -0.6275 O   0  0  0  0  0  0  0  0  0  0  0  0
    5.2943   -0.3317    0.3042 C   0  0  0  0  0  0  0  0  0  0  0  0
    5.0015    0.9547    0.0418 C   0  0  0  0  0  0  0  0  0  0  0  0
    5.7689    2.0306    0.6219 C   0  0  0  0  0  0  0  0  0  0  0  0
    6.9248    1.7946    1.2570 C   0  0  0  0  0  0  0  0  0  0  0  0
    7.4780    0.4074    1.4244 C   0  0  0  0  0  0  0  0  0  0  0  0
    6.4651   -0.7246    1.1682 C   0  0  0  0  0  0  0  0  0  0  0  0
   -0.4911   -1.0349    0.3159 C   0  0  0  0  0  0  0  0  0  0  0  0
   -1.7574   -1.4694    0.3745 C   0  0  0  0  0  0  0  0  0  0  0  0
   -2.7333   -1.7181   -0.5806 N   0  0  0  0  0  0  0  0  0  0  0  0
   -2.3392   -2.1096   -1.8692 N   0  0  0  0  0  0  0  0  0  0  0  0
   -4.8430   -2.9978   -1.4623 H   0  0  0  0  0  0  0  0  0  0  0  0
   -6.1075   -1.7843   -0.8960 H   0  0  0  0  0  0  0  0  0  0  0  0
   -3.4648    0.4284    0.2522 H   0  0  0  0  0  0  0  0  0  0  0  0
   -7.1168    0.3123    2.0692 H   0  0  0  0  0  0  0  0  0  0  0  0
   -6.1909   -1.1619    1.8259 H   0  0  0  0  0  0  0  0  0  0  0  0
   -7.2519   -0.5446    0.5325 H   0  0  0  0  0  0  0  0  0  0  0  0
   -6.3074    2.3548    1.3060 H   0  0  0  0  0  0  0  0  0  0  0  0
   -4.6475    3.8636    0.7411 H   0  0  0  0  0  0  0  0  0  0  0  0
   -4.5539    2.9630   -0.7670 H   0  0  0  0  0  0  0  0  0  0  0  0
   -2.8757    2.4366    1.6738 H   0  0  0  0  0  0  0  0  0  0  0  0
   -2.3383    2.3846   -1.2375 H   0  0  0  0  0  0  0  0  0  0  0  0
   -0.4232    1.5027   -1.8113 H   0  0  0  0  0  0  0  0  0  0  0  0
    0.7070    2.5722   -0.9994 H   0  0  0  0  0  0  0  0  0  0  0  0
    0.3768   -2.3478   -1.9755 H   0  0  0  0  0  0  0  0  0  0  0  0
    1.3989   -1.0119   -2.4892 H   0  0  0  0  0  0  0  0  0  0  0  0
    1.8683   -2.7766   -0.0075 H   0  0  0  0  0  0  0  0  0  0  0  0
    2.7355   -2.8948   -1.5448 H   0  0  0  0  0  0  0  0  0  0  0  0
    2.7506   -0.3779    0.0245 H   0  0  0  0  0  0  0  0  0  0  0  0
    4.1832    1.2389   -0.6136 H   0  0  0  0  0  0  0  0  0  0  0  0
    5.3953    3.0437    0.5029 H   0  0  0  0  0  0  0  0  0  0  0  0
    7.5033    2.6222    1.6574 H   0  0  0  0  0  0  0  0  0  0  0  0
    7.8800    0.2982    2.4387 H   0  0  0  0  0  0  0  0  0  0  0  0
    8.3280    0.2972    0.7395 H   0  0  0  0  0  0  0  0  0  0  0  0
    6.0705   -1.0719    2.1321 H   0  0  0  0  0  0  0  0  0  0  0  0
    7.0062   -1.5723    0.7312 H   0  0  0  0  0  0  0  0  0  0  0  0
   -0.0031   -0.7911    1.2591 H   0  0  0  0  0  0  0  0  0  0  0  0
   -2.1885   -1.5705    1.3708 H   0  0  0  0  0  0  0  0  0  0  0  0
   -1.7652   -2.9464   -1.7909 H   0  0  0  0  0  0  0  0  0  0  0  0
   -1.7397   -1.3746   -2.2452 H   0  0  0  0  0  0  0  0  0  0  0  0
  1  2  2  0
  2  3  1  0
  3  4  1  0
  4  5  1  0
  4  6  2  3
  6  7  1  0
  7  8  1  0
  8  9  1  0
  9 10  2  3
 10 11  1  0
 11 12  1  0
 12 13  1  0
 13 14  1  0
 14 15  1  0
 15 16  1  0
 16 17  1  0
 17 18  2  0
 17 19  1  0
 19 20  2  0
 20 21  1  0
 21 22  2  0
 22 23  1  0
 23 24  1  0
 13 25  1  0
 25 26  2  3
 26 27  1  0
 27 28  1  0
 27  2  1  0
 24 19  1  0
  1 29  1  0
  1 30  1  0
  3 31  1  0
  5 32  1  0
  5 33  1  0
  5 34  1  0
  6 35  1  0
  7 36  1  0
  7 37  1  0
  8 38  1  0
  9 39  1  0
 11 40  1  0
 11 41  1  0
 14 42  1  0
 14 43  1  0
 15 44  1  0
 15 45  1  0
 16 46  1  0
 20 47  1  0
 21 48  1  0
 22 49  1  0
 23 50  1  0
 23 51  1  0
 24 52  1  0
 24 53  1  0
 25 54  1  0
 26 55  1  0
 28 56  1  0
 28 57  1  0
M  END
>  <candidate_id>  (106) 
CAND_457797d542

>  <source_generator>  (106) 
selfies

>  <parent_mol_id>  (106) 
JAK2_e2cae42d88

>  <canonical_smiles>  (106) 
C=C1NC(C)=CCNC=NCON(CCNC(=O)C2=CC=CCC2)C=CN1N

>  <inchikey>  (106) 
RWLDNUDDASFRPN-UHFFFAOYSA-N

>  <valid_rdkit>  (106) 
True

>  <unique_flag>  (106) 
True

>  <novel_flag>  (106) 
True

>  <mw>  (106) 
387.488

>  <logp>  (106) 
0.8131

>  <tpsa>  (106) 
107.25

>  <hbd>  (106) 
4

>  <hba>  (106) 
8

>  <rotatable_bonds>  (106) 
4

>  <qed>  (106) 
0.529

>  <sa_score>  (106) 
3.408

>  <murcko_scaffold>  (106) 
C=C1NC=CCNC=NCON(CCNC(=O)C2=CC=CCC2)C=CN1

>  <max_ring_size>  (106) 
14

>  <has_macrocycle_12_20>  (106) 
True

>  <has_constrained_ring_8_11>  (106) 
False

>  <passes_basic_filters>  (106) 
True

>  <generation_notes>  (106) 
selfies_token_mutation

>  <best_score>  (106) 
nan

>  <qed_admet>  (106) 
0.529

>  <sa_score_admet>  (106) 
3.408

>  <mw_admet>  (106) 
387.488

>  <logp_admet>  (106) 
0.8131

>  <tpsa_admet>  (106) 
107.25

>  <hbd_admet>  (106) 
4

>  <hba_admet>  (106) 
8

>  <rotatable_bonds_admet>  (106) 
4

>  <lipinski_violations>  (106) 
0

>  <veber_pass>  (106) 
True

>  <admet_score>  (106) 
0.78805

>  <synthesis_score>  (106) 
0.732444

>  <safety_proxy_score>  (106) 
1.0

>  <main_risk>  (106) 
no_major_descriptor_risk

>  <pose_score>  (106) 
0.5

>  <pose_decision>  (106) 
nan

>  <contacts_within_4A>  (106) 
nan

>  <hard_clashes_lt_1_8A>  (106) 
nan

>  <smiles>  (106) 
C=C1NC(C)=CCNC=NCON(CCNC(=O)C2=CC=CCC2)C=CN1N

>  <docking_score>  (106) 
nan

>  <diversity_cluster>  (106) 
scaffold_d4f03725

>  <docking_score_scaled>  (106) 
0.0

>  <novelty_score>  (106) 
1.0

>  <final_weighted_score>  (106) 
0.492477

>  <rank>  (106) 
1508

>  <decision>  (106) 
await_docking

>  <diverse_rank>  (106) 
983

>  <selection_tier>  (106) 
await_docking

$$$$
CAND_f0651a9cfd
     RDKit          3D

 42 43  0  0  0  0  0  0  0  0999 V2000
    2.5235    3.4496    3.0333 C   0  0  0  0  0  0  0  0  0  0  0  0
    1.6884    2.6245    2.2323 O   0  0  0  0  0  0  0  0  0  0  0  0
    1.6470    2.8826    0.8828 C   0  0  0  0  0  0  0  0  0  0  0  0
    2.3851    3.8928    0.2521 C   0  0  0  0  0  0  0  0  0  0  0  0
    2.2901    4.0857   -1.1282 C   0  0  0  0  0  0  0  0  0  0  0  0
    1.4615    3.2706   -1.8909 C   0  0  0  0  0  0  0  0  0  0  0  0
    0.7197    2.2635   -1.2745 C   0  0  0  0  0  0  0  0  0  0  0  0
    0.7916    2.0628    0.1141 C   0  0  0  0  0  0  0  0  0  0  0  0
    0.0323    0.9659    0.7480 C   0  0  0  0  0  0  0  0  0  0  0  0
   -1.2177    0.6166    0.3997 C   0  0  0  0  0  0  0  0  0  0  0  0
   -1.9827   -0.4691    1.0112 C   0  0  0  0  0  0  0  0  0  0  0  0
   -3.0699   -0.9902    0.4060 C   0  0  0  0  0  0  0  0  0  0  0  0
   -3.4132   -0.8119   -1.0242 C   0  0  0  0  0  0  0  0  0  0  0  0
   -2.7605   -1.2026   -2.0691 N   0  0  0  0  0  0  0  0  0  0  0  0
   -1.5096   -1.7769   -1.9824 C   0  0  0  0  0  0  0  0  0  0  0  0
   -0.6495   -1.1472   -2.7301 N   0  0  0  0  0  0  0  0  0  0  0  0
    0.6446   -1.5144   -2.6385 N   0  0  0  0  0  0  0  0  0  0  0  0
    1.6522   -0.5226   -3.6827 Cl  0  0  0  0  0  0  0  0  0  0  0  0
   -1.3191   -2.8810   -1.1685 N   0  0  0  0  0  0  0  0  0  0  0  0
   -0.3288   -3.8321   -1.0970 C   0  0  0  0  0  0  0  0  0  0  0  0
    0.0223   -4.6117   -0.0596 C   0  0  0  0  0  0  0  0  0  0  0  0
   -0.4763   -4.5620    1.3041 C   0  0  0  0  0  0  0  0  0  0  0  0
   -0.8560   -3.4527    1.8697 C   0  0  0  0  0  0  0  0  0  0  0  0
   -1.2046   -2.3538    2.2085 C   0  0  0  0  0  0  0  0  0  0  0  0
   -1.5963   -1.1104    2.2723 C   0  0  0  0  0  0  0  0  0  0  0  0
    2.4299    3.1122    4.0700 H   0  0  0  0  0  0  0  0  0  0  0  0
    2.2009    4.4952    2.9944 H   0  0  0  0  0  0  0  0  0  0  0  0
    3.5746    3.3463    2.7447 H   0  0  0  0  0  0  0  0  0  0  0  0
    3.0492    4.5478    0.8055 H   0  0  0  0  0  0  0  0  0  0  0  0
    2.8700    4.8695   -1.6088 H   0  0  0  0  0  0  0  0  0  0  0  0
    1.3952    3.4079   -2.9674 H   0  0  0  0  0  0  0  0  0  0  0  0
    0.0957    1.6252   -1.8981 H   0  0  0  0  0  0  0  0  0  0  0  0
    0.5602    0.4501    1.5460 H   0  0  0  0  0  0  0  0  0  0  0  0
   -1.7150    1.1692   -0.3963 H   0  0  0  0  0  0  0  0  0  0  0  0
   -3.6867   -1.7403    0.8951 H   0  0  0  0  0  0  0  0  0  0  0  0
   -4.4066   -0.3608   -1.1901 H   0  0  0  0  0  0  0  0  0  0  0  0
    0.9617   -1.4743   -1.6663 H   0  0  0  0  0  0  0  0  0  0  0  0
   -2.0678   -3.0508   -0.5138 H   0  0  0  0  0  0  0  0  0  0  0  0
    0.1921   -3.9585   -2.0454 H   0  0  0  0  0  0  0  0  0  0  0  0
    0.7910   -5.3650   -0.2288 H   0  0  0  0  0  0  0  0  0  0  0  0
   -0.3858   -5.4648    1.9004 H   0  0  0  0  0  0  0  0  0  0  0  0
   -1.3328   -0.4850    3.1186 H   0  0  0  0  0  0  0  0  0  0  0  0
  1  2  1  0
  2  3  1  0
  3  4  2  0
  4  5  1  0
  5  6  2  0
  6  7  1  0
  7  8  2  0
  8  9  1  0
  9 10  2  3
 10 11  1  0
 11 12  2  3
 12 13  1  0
 13 14  2  3
 14 15  1  0
 15 16  2  3
 16 17  1  0
 17 18  1  0
 15 19  1  0
 19 20  1  0
 20 21  2  3
 21 22  1  0
 22 23  2  0
 23 24  2  0
 24 25  2  0
  8  3  1  0
 25 11  1  0
  1 26  1  0
  1 27  1  0
  1 28  1  0
  4 29  1  0
  5 30  1  0
  6 31  1  0
  7 32  1  0
  9 33  1  0
 10 34  1  0
 12 35  1  0
 13 36  1  0
 17 37  1  0
 19 38  1  0
 20 39  1  0
 21 40  1  0
 22 41  1  0
 25 42  1  0
M  END
>  <candidate_id>  (107) 
CAND_f0651a9cfd

>  <source_generator>  (107) 
selfies

>  <parent_mol_id>  (107) 
JAK2_ccf270f33b

>  <canonical_smiles>  (107) 
COc1ccccc1C=CC1=CC=NC(=NNCl)NC=CC=C=C=C1

>  <inchikey>  (107) 
YGDXLKYUMHVHNQ-UHFFFAOYSA-N

>  <valid_rdkit>  (107) 
True

>  <unique_flag>  (107) 
True

>  <novel_flag>  (107) 
True

>  <mw>  (107) 
352.825

>  <logp>  (107) 
3.7033

>  <tpsa>  (107) 
58.01

>  <hbd>  (107) 
2

>  <hba>  (107) 
3

>  <rotatable_bonds>  (107) 
4

>  <qed>  (107) 
0.4932

>  <sa_score>  (107) 
3.216

>  <murcko_scaffold>  (107) 
N=C1N=CC=C(C=Cc2ccccc2)C=C=C=CC=CN1

>  <max_ring_size>  (107) 
12

>  <has_macrocycle_12_20>  (107) 
True

>  <has_constrained_ring_8_11>  (107) 
False

>  <passes_basic_filters>  (107) 
True

>  <generation_notes>  (107) 
selfies_token_mutation

>  <best_score>  (107) 
nan

>  <qed_admet>  (107) 
0.4932

>  <sa_score_admet>  (107) 
3.216

>  <mw_admet>  (107) 
352.825

>  <logp_admet>  (107) 
3.7033

>  <tpsa_admet>  (107) 
58.01

>  <hbd_admet>  (107) 
2

>  <hba_admet>  (107) 
3

>  <rotatable_bonds_admet>  (107) 
4

>  <lipinski_violations>  (107) 
0

>  <veber_pass>  (107) 
True

>  <admet_score>  (107) 
0.77194

>  <synthesis_score>  (107) 
0.753778

>  <safety_proxy_score>  (107) 
1.0

>  <main_risk>  (107) 
no_major_descriptor_risk

>  <pose_score>  (107) 
0.5

>  <pose_decision>  (107) 
nan

>  <contacts_within_4A>  (107) 
nan

>  <hard_clashes_lt_1_8A>  (107) 
nan

>  <smiles>  (107) 
COc1ccccc1C=CC1=CC=NC(=NNCl)NC=CC=C=C=C1

>  <docking_score>  (107) 
nan

>  <diversity_cluster>  (107) 
scaffold_5e69e3f6

>  <docking_score_scaled>  (107) 
0.0

>  <novelty_score>  (107) 
1.0

>  <final_weighted_score>  (107) 
0.492455

>  <rank>  (107) 
1509

>  <decision>  (107) 
await_docking

>  <diverse_rank>  (107) 
984

>  <selection_tier>  (107) 
await_docking

$$$$
CAND_3a37400fe4
     RDKit          3D

 49 52  0  0  0  0  0  0  0  0999 V2000
    6.0379    0.8099    3.1895 C   0  0  0  0  0  0  0  0  0  0  0  0
    4.9167    0.3995    2.3186 C   0  0  0  0  0  0  0  0  0  0  0  0
    3.5877    0.1460    2.5744 C   0  0  0  0  0  0  0  0  0  0  0  0
    3.0144   -0.2051    1.3264 C   0  0  0  0  0  0  0  0  0  0  0  0
    1.7160   -0.5511    1.2231 N   0  0  0  0  0  0  0  0  0  0  0  0
    0.9381   -0.9391    0.1331 C   0  0  0  0  0  0  0  0  0  0  0  0
   -0.0829   -1.7704    0.4789 N   0  0  0  0  0  0  0  0  0  0  0  0
   -0.8842   -2.2172   -0.5084 C   0  0  0  0  0  0  0  0  0  0  0  0
   -0.5697   -1.9726   -1.8396 C   0  0  0  0  0  0  0  0  0  0  0  0
    0.4191   -1.1395   -2.2179 N   0  0  0  0  0  0  0  0  0  0  0  0
    1.0986   -0.5353   -1.2025 C   0  0  0  0  0  0  0  0  0  0  0  0
    1.7921    0.7437   -1.6068 C   0  0  0  0  0  0  0  0  0  0  0  0
    0.8158    1.7260   -2.2944 C   0  0  0  0  0  0  0  0  0  0  0  0
   -0.2283    2.3273   -1.3291 C   0  0  0  0  0  0  0  0  0  0  0  0
   -1.6820    2.2404   -1.8351 C   0  0  0  0  0  0  0  0  0  0  0  0
   -2.5581    1.4268   -0.9128 C   0  0  0  0  0  0  0  0  0  0  0  0
   -2.7497    0.1206   -1.2281 N   0  0  0  0  0  0  0  0  0  0  0  0
   -3.3797   -0.6915   -0.3304 C   0  0  0  0  0  0  0  0  0  0  0  0
   -3.9013   -0.1906    0.8621 C   0  0  0  0  0  0  0  0  0  0  0  0
   -3.7593    1.1679    1.1434 C   0  0  0  0  0  0  0  0  0  0  0  0
   -3.0655    1.9775    0.2557 C   0  0  0  0  0  0  0  0  0  0  0  0
   -2.8694    3.2693    0.5534 F   0  0  0  0  0  0  0  0  0  0  0  0
   -3.3170   -2.1941   -0.6418 C   0  0  2  0  0  0  0  0  0  0  0  0
   -4.5172   -2.9909   -0.1265 C   0  0  0  0  0  0  0  0  0  0  0  0
   -2.0837   -2.7901   -0.0945 N   0  0  0  0  0  0  0  0  0  0  0  0
    3.9370   -0.1838    0.3622 N   0  0  0  0  0  0  0  0  0  0  0  0
    5.0680    0.1830    0.9788 N   0  0  0  0  0  0  0  0  0  0  0  0
    6.8264    0.0506    3.1869 H   0  0  0  0  0  0  0  0  0  0  0  0
    5.7024    0.9459    4.2226 H   0  0  0  0  0  0  0  0  0  0  0  0
    6.4675    1.7564    2.8459 H   0  0  0  0  0  0  0  0  0  0  0  0
    3.0937    0.2071    3.5335 H   0  0  0  0  0  0  0  0  0  0  0  0
    1.2277   -0.8530    2.0574 H   0  0  0  0  0  0  0  0  0  0  0  0
   -1.1683   -2.3736   -2.6479 H   0  0  0  0  0  0  0  0  0  0  0  0
    2.6029    0.4915   -2.3001 H   0  0  0  0  0  0  0  0  0  0  0  0
    2.2328    1.2717   -0.7593 H   0  0  0  0  0  0  0  0  0  0  0  0
    1.4109    2.5515   -2.7060 H   0  0  0  0  0  0  0  0  0  0  0  0
    0.3372    1.2455   -3.1550 H   0  0  0  0  0  0  0  0  0  0  0  0
   -0.1313    1.8926   -0.3275 H   0  0  0  0  0  0  0  0  0  0  0  0
    0.0169    3.3910   -1.2070 H   0  0  0  0  0  0  0  0  0  0  0  0
   -2.1035    3.2503   -1.9163 H   0  0  0  0  0  0  0  0  0  0  0  0
   -1.7349    1.8128   -2.8428 H   0  0  0  0  0  0  0  0  0  0  0  0
   -4.3798   -0.8362    1.5897 H   0  0  0  0  0  0  0  0  0  0  0  0
   -4.1448    1.5888    2.0660 H   0  0  0  0  0  0  0  0  0  0  0  0
   -3.3246   -2.3052   -1.7342 H   0  0  0  0  0  0  0  0  0  0  0  0
   -4.5463   -3.0331    0.9679 H   0  0  0  0  0  0  0  0  0  0  0  0
   -4.4681   -4.0261   -0.4831 H   0  0  0  0  0  0  0  0  0  0  0  0
   -5.4596   -2.5566   -0.4773 H   0  0  0  0  0  0  0  0  0  0  0  0
   -2.0624   -2.9011    0.9133 H   0  0  0  0  0  0  0  0  0  0  0  0
    5.9118    0.2627    0.4210 H   0  0  0  0  0  0  0  0  0  0  0  0
  1  2  1  0
  2  3  2  0
  3  4  1  0
  4  5  1  0
  5  6  1  0
  6  7  2  0
  7  8  1  0
  8  9  2  0
  9 10  1  0
 10 11  2  0
 11 12  1  0
 12 13  1  0
 13 14  1  0
 14 15  1  0
 15 16  1  0
 16 17  1  0
 17 18  2  0
 18 19  1  0
 19 20  2  0
 20 21  1  0
 21 22  1  0
 18 23  1  0
 23 24  1  0
 23 25  1  0
  4 26  2  0
 26 27  1  0
 27  2  1  0
 11  6  1  0
 21 16  2  0
 25  8  1  0
  1 28  1  0
  1 29  1  0
  1 30  1  0
  3 31  1  0
  5 32  1  0
  9 33  1  0
 12 34  1  0
 12 35  1  0
 13 36  1  0
 13 37  1  0
 14 38  1  0
 14 39  1  0
 15 40  1  0
 15 41  1  0
 19 42  1  0
 20 43  1  0
 23 44  1  6
 24 45  1  0
 24 46  1  0
 24 47  1  0
 25 48  1  0
 27 49  1  0
M  END
>  <candidate_id>  (108) 
CAND_3a37400fe4

>  <source_generator>  (108) 
macrocycle_linker

>  <parent_mol_id>  (108) 
JAK2_050c16628f

>  <canonical_smiles>  (108) 
Cc1cc(Nc2nc3cnc2CCCCc2nc(ccc2F)[C@H](C)N3)n[nH]1

>  <inchikey>  (108) 
AGOWNQZKIIQZTE-LBPRGKRZSA-N

>  <valid_rdkit>  (108) 
True

>  <unique_flag>  (108) 
True

>  <novel_flag>  (108) 
True

>  <mw>  (108) 
367.432

>  <logp>  (108) 
3.8377

>  <tpsa>  (108) 
91.41

>  <hbd>  (108) 
3

>  <hba>  (108) 
6

>  <rotatable_bonds>  (108) 
2

>  <qed>  (108) 
0.6374

>  <sa_score>  (108) 
3.997

>  <murcko_scaffold>  (108) 
c1cc2nc(c1)CNc1cnc(c(Nc3cc[nH]n3)n1)CCCC2

>  <max_ring_size>  (108) 
13

>  <has_macrocycle_12_20>  (108) 
True

>  <has_constrained_ring_8_11>  (108) 
False

>  <passes_basic_filters>  (108) 
True

>  <generation_notes>  (108) 
macrocycle_bridge_oxa_aza_path8_ring12

>  <best_score>  (108) 
nan

>  <qed_admet>  (108) 
0.6374

>  <sa_score_admet>  (108) 
3.997

>  <mw_admet>  (108) 
367.432

>  <logp_admet>  (108) 
3.8377

>  <tpsa_admet>  (108) 
91.41

>  <hbd_admet>  (108) 
3

>  <hba_admet>  (108) 
6

>  <rotatable_bonds_admet>  (108) 
2

>  <lipinski_violations>  (108) 
0

>  <veber_pass>  (108) 
True

>  <admet_score>  (108) 
0.83683

>  <synthesis_score>  (108) 
0.667

>  <safety_proxy_score>  (108) 
1.0

>  <main_risk>  (108) 
no_major_descriptor_risk

>  <pose_score>  (108) 
0.5

>  <pose_decision>  (108) 
nan

>  <contacts_within_4A>  (108) 
nan

>  <hard_clashes_lt_1_8A>  (108) 
nan

>  <smiles>  (108) 
Cc1cc(Nc2nc3cnc2CCCCc2nc(ccc2F)[C@H](C)N3)n[nH]1

>  <docking_score>  (108) 
nan

>  <diversity_cluster>  (108) 
scaffold_86de43d8

>  <docking_score_scaled>  (108) 
0.0

>  <novelty_score>  (108) 
1.0

>  <final_weighted_score>  (108) 
0.492416

>  <rank>  (108) 
1523

>  <decision>  (108) 
await_docking

>  <diverse_rank>  (108) 
988

>  <selection_tier>  (108) 
await_docking

$$$$
CAND_5e5838b904
     RDKit          3D

 47 50  0  0  0  0  0  0  0  0999 V2000
    5.8304    0.7773   -2.1813 C   0  0  0  0  0  0  0  0  0  0  0  0
    4.7625    0.4981   -1.1997 C   0  0  0  0  0  0  0  0  0  0  0  0
    3.5595    1.1142   -0.9354 C   0  0  0  0  0  0  0  0  0  0  0  0
    2.9685    0.3682    0.1149 C   0  0  0  0  0  0  0  0  0  0  0  0
    1.7761    0.7068    0.6400 N   0  0  0  0  0  0  0  0  0  0  0  0
    0.8870   -0.1062    1.3691 C   0  0  0  0  0  0  0  0  0  0  0  0
    0.6146   -1.3477    0.9111 N   0  0  0  0  0  0  0  0  0  0  0  0
   -0.4488   -1.9848    1.4320 C   0  0  0  0  0  0  0  0  0  0  0  0
   -1.0843   -1.4841    2.5698 C   0  0  0  0  0  0  0  0  0  0  0  0
   -0.8097   -0.2745    3.1054 N   0  0  0  0  0  0  0  0  0  0  0  0
    0.1334    0.4386    2.4295 C   0  0  0  0  0  0  0  0  0  0  0  0
    0.1515    1.9222    2.7086 C   0  0  0  0  0  0  0  0  0  0  0  0
   -0.8888    2.6031    1.8093 C   0  0  0  0  0  0  0  0  0  0  0  0
   -0.4938    2.5013    0.4310 O   0  0  0  0  0  0  0  0  0  0  0  0
   -1.6148    2.5113   -0.4753 C   0  0  0  0  0  0  0  0  0  0  0  0
   -2.3608    1.1917   -0.5324 C   0  0  0  0  0  0  0  0  0  0  0  0
   -1.6494    0.0572   -0.7748 N   0  0  0  0  0  0  0  0  0  0  0  0
   -2.2798   -1.1543   -0.7136 C   0  0  0  0  0  0  0  0  0  0  0  0
   -3.6533   -1.2417   -0.4839 C   0  0  0  0  0  0  0  0  0  0  0  0
   -4.3868   -0.0690   -0.3072 C   0  0  0  0  0  0  0  0  0  0  0  0
   -3.7309    1.1544   -0.3209 C   0  0  0  0  0  0  0  0  0  0  0  0
   -4.4287    2.2781   -0.1060 F   0  0  0  0  0  0  0  0  0  0  0  0
   -1.3822   -2.4095   -0.7444 C   0  0  2  0  0  0  0  0  0  0  0  0
   -1.9685   -3.5493   -1.5802 C   0  0  0  0  0  0  0  0  0  0  0  0
   -1.1183   -2.9012    0.6192 N   0  0  0  0  0  0  0  0  0  0  0  0
    3.7772   -0.6195    0.5064 N   0  0  0  0  0  0  0  0  0  0  0  0
    4.8279   -0.5429   -0.3175 N   0  0  0  0  0  0  0  0  0  0  0  0
    6.7816    0.9671   -1.6739 H   0  0  0  0  0  0  0  0  0  0  0  0
    5.5878    1.6575   -2.7852 H   0  0  0  0  0  0  0  0  0  0  0  0
    5.9632   -0.0719   -2.8592 H   0  0  0  0  0  0  0  0  0  0  0  0
    3.1507    1.9778   -1.4392 H   0  0  0  0  0  0  0  0  0  0  0  0
    1.2694    1.5129    0.2812 H   0  0  0  0  0  0  0  0  0  0  0  0
   -1.9332   -1.9962    3.0071 H   0  0  0  0  0  0  0  0  0  0  0  0
    1.1513    2.3388    2.5467 H   0  0  0  0  0  0  0  0  0  0  0  0
   -0.1037    2.0935    3.7608 H   0  0  0  0  0  0  0  0  0  0  0  0
   -1.8780    2.1595    1.9740 H   0  0  0  0  0  0  0  0  0  0  0  0
   -0.9503    3.6681    2.0576 H   0  0  0  0  0  0  0  0  0  0  0  0
   -1.2121    2.7068   -1.4752 H   0  0  0  0  0  0  0  0  0  0  0  0
   -2.2734    3.3506   -0.2235 H   0  0  0  0  0  0  0  0  0  0  0  0
   -4.1531   -2.2009   -0.4086 H   0  0  0  0  0  0  0  0  0  0  0  0
   -5.4558   -0.1045   -0.1242 H   0  0  0  0  0  0  0  0  0  0  0  0
   -0.4374   -2.1319   -1.2318 H   0  0  0  0  0  0  0  0  0  0  0  0
   -2.8756   -3.9686   -1.1317 H   0  0  0  0  0  0  0  0  0  0  0  0
   -1.2465   -4.3695   -1.6648 H   0  0  0  0  0  0  0  0  0  0  0  0
   -2.2151   -3.2093   -2.5918 H   0  0  0  0  0  0  0  0  0  0  0  0
   -1.7229   -3.5838    1.0446 H   0  0  0  0  0  0  0  0  0  0  0  0
    5.5629   -1.2337   -0.2135 H   0  0  0  0  0  0  0  0  0  0  0  0
  1  2  1  0
  2  3  2  0
  3  4  1  0
  4  5  1  0
  5  6  1  0
  6  7  2  0
  7  8  1  0
  8  9  2  0
  9 10  1  0
 10 11  2  0
 11 12  1  0
 12 13  1  0
 13 14  1  0
 14 15  1  0
 15 16  1  0
 16 17  1  0
 17 18  2  0
 18 19  1  0
 19 20  2  0
 20 21  1  0
 21 22  1  0
 18 23  1  0
 23 24  1  0
 23 25  1  0
  4 26  2  0
 26 27  1  0
 27  2  1  0
 11  6  1  0
 21 16  2  0
 25  8  1  0
  1 28  1  0
  1 29  1  0
  1 30  1  0
  3 31  1  0
  5 32  1  0
  9 33  1  0
 12 34  1  0
 12 35  1  0
 13 36  1  0
 13 37  1  0
 15 38  1  0
 15 39  1  0
 19 40  1  0
 20 41  1  0
 23 42  1  6
 24 43  1  0
 24 44  1  0
 24 45  1  0
 25 46  1  0
 27 47  1  0
M  END
>  <candidate_id>  (109) 
CAND_5e5838b904

>  <source_generator>  (109) 
macrocycle_linker

>  <parent_mol_id>  (109) 
JAK2_050c16628f

>  <canonical_smiles>  (109) 
Cc1cc(Nc2nc3cnc2CCOCc2nc(ccc2F)[C@H](C)N3)n[nH]1

>  <inchikey>  (109) 
AOZHMQSZGNXZOR-NSHDSACASA-N

>  <valid_rdkit>  (109) 
True

>  <unique_flag>  (109) 
True

>  <novel_flag>  (109) 
True

>  <mw>  (109) 
369.404

>  <logp>  (109) 
3.0316

>  <tpsa>  (109) 
100.64

>  <hbd>  (109) 
3

>  <hba>  (109) 
7

>  <rotatable_bonds>  (109) 
2

>  <qed>  (109) 
0.6382

>  <sa_score>  (109) 
4.008

>  <murcko_scaffold>  (109) 
c1cc2nc(c1)COCCc1ncc(nc1Nc1cc[nH]n1)NC2

>  <max_ring_size>  (109) 
13

>  <has_macrocycle_12_20>  (109) 
True

>  <has_constrained_ring_8_11>  (109) 
False

>  <passes_basic_filters>  (109) 
True

>  <generation_notes>  (109) 
macrocycle_bridge_oxa_path8_ring12

>  <best_score>  (109) 
nan

>  <qed_admet>  (109) 
0.6382

>  <sa_score_admet>  (109) 
4.008

>  <mw_admet>  (109) 
369.404

>  <logp_admet>  (109) 
3.0316

>  <tpsa_admet>  (109) 
100.64

>  <hbd_admet>  (109) 
3

>  <hba_admet>  (109) 
7

>  <rotatable_bonds_admet>  (109) 
2

>  <lipinski_violations>  (109) 
0

>  <veber_pass>  (109) 
True

>  <admet_score>  (109) 
0.83719

>  <synthesis_score>  (109) 
0.665778

>  <safety_proxy_score>  (109) 
1.0

>  <main_risk>  (109) 
no_major_descriptor_risk

>  <pose_score>  (109) 
0.5

>  <pose_decision>  (109) 
nan

>  <contacts_within_4A>  (109) 
nan

>  <hard_clashes_lt_1_8A>  (109) 
nan

>  <smiles>  (109) 
Cc1cc(Nc2nc3cnc2CCOCc2nc(ccc2F)[C@H](C)N3)n[nH]1

>  <docking_score>  (109) 
nan

>  <diversity_cluster>  (109) 
scaffold_4337f475

>  <docking_score_scaled>  (109) 
0.0

>  <novelty_score>  (109) 
1.0

>  <final_weighted_score>  (109) 
0.492305

>  <rank>  (109) 
1532

>  <decision>  (109) 
await_docking

>  <diverse_rank>  (109) 
992

>  <selection_tier>  (109) 
await_docking

$$$$
CAND_1f440748ca
     RDKit          3D

 46 49  0  0  0  0  0  0  0  0999 V2000
   -1.7706    3.2536    2.9851 C   0  0  0  0  0  0  0  0  0  0  0  0
   -0.6550    2.8047    2.0984 C   0  0  0  0  0  0  0  0  0  0  0  0
    0.6551    3.1105    2.3945 C   0  0  0  0  0  0  0  0  0  0  0  0
    1.6997    2.7509    1.6323 N   0  0  0  0  0  0  0  0  0  0  0  0
    1.4269    2.0504    0.5283 C   0  0  0  0  0  0  0  0  0  0  0  0
    0.1901    1.6890    0.1647 N   0  0  0  0  0  0  0  0  0  0  0  0
   -0.8487    2.0790    0.9299 C   0  0  0  0  0  0  0  0  0  0  0  0
   -2.1703    1.7850    0.5287 N   0  0  0  0  0  0  0  0  0  0  0  0
   -2.6447    0.8363   -0.3046 C   0  0  0  0  0  0  0  0  0  0  0  0
   -3.6092    1.1303   -1.1816 N   0  0  0  0  0  0  0  0  0  0  0  0
   -3.8248   -0.0172   -1.8319 N   0  0  0  0  0  0  0  0  0  0  0  0
   -3.1338   -1.0757   -1.3239 C   0  0  0  0  0  0  0  0  0  0  0  0
   -3.2994   -2.4490   -1.8542 C   0  0  0  0  0  0  0  0  0  0  0  0
   -2.3455   -0.5605   -0.3031 C   0  0  0  0  0  0  0  0  0  0  0  0
   -1.4609   -1.3151    0.6350 C   0  0  0  0  0  0  0  0  0  0  0  0
   -1.0237   -2.5670    0.0811 O   0  0  0  0  0  0  0  0  0  0  0  0
    0.1002   -3.1227    0.7714 C   0  0  0  0  0  0  0  0  0  0  0  0
    1.4176   -2.4766    0.4079 C   0  0  0  0  0  0  0  0  0  0  0  0
    1.3960   -1.3612   -0.3570 N   0  0  0  0  0  0  0  0  0  0  0  0
    2.5512   -0.7007   -0.5627 C   0  0  0  0  0  0  0  0  0  0  0  0
    3.7479   -1.1204   -0.0898 N   0  0  0  0  0  0  0  0  0  0  0  0
    3.7374   -2.2645    0.6293 C   0  0  0  0  0  0  0  0  0  0  0  0
    2.5951   -2.9738    0.9177 C   0  0  0  0  0  0  0  0  0  0  0  0
    2.6319   -4.0740    1.6789 F   0  0  0  0  0  0  0  0  0  0  0  0
    2.4461    0.6705   -1.2318 C   0  0  2  0  0  0  0  0  0  0  0  0
    3.5684    0.8713   -2.2515 C   0  0  0  0  0  0  0  0  0  0  0  0
    2.5154    1.7329   -0.2411 N   0  0  0  0  0  0  0  0  0  0  0  0
   -2.3670    4.0238    2.4858 H   0  0  0  0  0  0  0  0  0  0  0  0
   -1.3919    3.6773    3.9216 H   0  0  0  0  0  0  0  0  0  0  0  0
   -2.4164    2.4099    3.2500 H   0  0  0  0  0  0  0  0  0  0  0  0
    0.9194    3.6795    3.2816 H   0  0  0  0  0  0  0  0  0  0  0  0
   -2.7266    2.6313    0.5162 H   0  0  0  0  0  0  0  0  0  0  0  0
   -4.4890   -0.0153   -2.5981 H   0  0  0  0  0  0  0  0  0  0  0  0
   -4.1223   -2.5056   -2.5744 H   0  0  0  0  0  0  0  0  0  0  0  0
   -3.5185   -3.1515   -1.0439 H   0  0  0  0  0  0  0  0  0  0  0  0
   -2.3861   -2.7754   -2.3616 H   0  0  0  0  0  0  0  0  0  0  0  0
   -2.0316   -1.5405    1.5442 H   0  0  0  0  0  0  0  0  0  0  0  0
   -0.6095   -0.7033    0.9355 H   0  0  0  0  0  0  0  0  0  0  0  0
    0.1466   -4.1799    0.4879 H   0  0  0  0  0  0  0  0  0  0  0  0
   -0.0660   -3.0702    1.8540 H   0  0  0  0  0  0  0  0  0  0  0  0
    4.7020   -2.5950    0.9997 H   0  0  0  0  0  0  0  0  0  0  0  0
    1.5014    0.7190   -1.7891 H   0  0  0  0  0  0  0  0  0  0  0  0
    4.5569    0.8713   -1.7776 H   0  0  0  0  0  0  0  0  0  0  0  0
    3.4540    1.8326   -2.7651 H   0  0  0  0  0  0  0  0  0  0  0  0
    3.5586    0.0790   -3.0081 H   0  0  0  0  0  0  0  0  0  0  0  0
    3.3935    1.9272    0.2149 H   0  0  0  0  0  0  0  0  0  0  0  0
  1  2  1  0
  2  3  2  0
  3  4  1  0
  4  5  2  0
  5  6  1  0
  6  7  2  0
  7  8  1  0
  8  9  1  0
  9 10  2  0
 10 11  1  0
 11 12  1  0
 12 13  1  0
 12 14  2  0
 14 15  1  0
 15 16  1  0
 16 17  1  0
 17 18  1  0
 18 19  2  0
 19 20  1  0
 20 21  2  0
 21 22  1  0
 22 23  2  0
 23 24  1  0
 20 25  1  0
 25 26  1  0
 25 27  1  0
  7  2  1  0
 14  9  1  0
 23 18  1  0
 27  5  1  0
  1 28  1  0
  1 29  1  0
  1 30  1  0
  3 31  1  0
  8 32  1  0
 11 33  1  0
 13 34  1  0
 13 35  1  0
 13 36  1  0
 15 37  1  0
 15 38  1  0
 17 39  1  0
 17 40  1  0
 22 41  1  0
 25 42  1  6
 26 43  1  0
 26 44  1  0
 26 45  1  0
 27 46  1  0
M  END
>  <candidate_id>  (110) 
CAND_1f440748ca

>  <source_generator>  (110) 
macrocycle_linker

>  <parent_mol_id>  (110) 
JAK2_f8ef9f9f68

>  <canonical_smiles>  (110) 
Cc1cnc2nc1Nc1n[nH]c(C)c1COCc1nc(ncc1F)[C@H](C)N2

>  <inchikey>  (110) 
QJOWPXVFHSURLZ-JTQLQIEISA-N

>  <valid_rdkit>  (110) 
True

>  <unique_flag>  (110) 
True

>  <novel_flag>  (110) 
True

>  <mw>  (110) 
370.392

>  <logp>  (110) 
2.6925

>  <tpsa>  (110) 
113.53

>  <hbd>  (110) 
3

>  <hba>  (110) 
8

>  <rotatable_bonds>  (110) 
0

>  <qed>  (110) 
0.5535

>  <sa_score>  (110) 
3.563

>  <murcko_scaffold>  (110) 
c1cc2nc(n1)CNc1nccc(n1)Nc1n[nH]cc1COC2

>  <max_ring_size>  (110) 
14

>  <has_macrocycle_12_20>  (110) 
True

>  <has_constrained_ring_8_11>  (110) 
False

>  <passes_basic_filters>  (110) 
True

>  <generation_notes>  (110) 
macrocycle_bridge_oxa_path10_ring13

>  <best_score>  (110) 
nan

>  <qed_admet>  (110) 
0.5535

>  <sa_score_admet>  (110) 
3.563

>  <mw_admet>  (110) 
370.392

>  <logp_admet>  (110) 
2.6925

>  <tpsa_admet>  (110) 
113.53

>  <hbd_admet>  (110) 
3

>  <hba_admet>  (110) 
8

>  <rotatable_bonds_admet>  (110) 
0

>  <lipinski_violations>  (110) 
0

>  <veber_pass>  (110) 
True

>  <admet_score>  (110) 
0.799075

>  <synthesis_score>  (110) 
0.715222

>  <safety_proxy_score>  (110) 
1.0

>  <main_risk>  (110) 
no_major_descriptor_risk

>  <pose_score>  (110) 
0.5

>  <pose_decision>  (110) 
nan

>  <contacts_within_4A>  (110) 
nan

>  <hard_clashes_lt_1_8A>  (110) 
nan

>  <smiles>  (110) 
Cc1cnc2nc1Nc1n[nH]c(C)c1COCc1nc(ncc1F)[C@H](C)N2

>  <docking_score>  (110) 
nan

>  <diversity_cluster>  (110) 
scaffold_f527e4a2

>  <docking_score_scaled>  (110) 
0.0

>  <novelty_score>  (110) 
1.0

>  <final_weighted_score>  (110) 
0.492098

>  <rank>  (110) 
1540

>  <decision>  (110) 
await_docking

>  <diverse_rank>  (110) 
998

>  <selection_tier>  (110) 
await_docking

$$$$
CAND_b604ce184b
     RDKit          3D

 46 49  0  0  0  0  0  0  0  0999 V2000
    2.9624    1.3694   -2.1821 C   0  0  0  0  0  0  0  0  0  0  0  0
    1.9790    1.3406   -1.0099 C   0  0  2  0  0  0  0  0  0  0  0  0
    2.1918    2.5547   -0.2093 N   0  0  0  0  0  0  0  0  0  0  0  0
    1.1314    3.0631    0.5310 C   0  0  0  0  0  0  0  0  0  0  0  0
    1.3093    4.2071    1.3108 C   0  0  0  0  0  0  0  0  0  0  0  0
    0.3294    4.7773    2.0488 N   0  0  0  0  0  0  0  0  0  0  0  0
   -0.8680    4.1539    1.9569 C   0  0  0  0  0  0  0  0  0  0  0  0
   -1.1055    3.0257    1.1658 C   0  0  0  0  0  0  0  0  0  0  0  0
   -0.0864    2.4858    0.4558 N   0  0  0  0  0  0  0  0  0  0  0  0
   -2.3888    2.4508    1.1593 N   0  0  0  0  0  0  0  0  0  0  0  0
   -2.8465    1.3018    0.6268 C   0  0  0  0  0  0  0  0  0  0  0  0
   -2.0913    0.2904   -0.0057 C   0  0  0  0  0  0  0  0  0  0  0  0
   -2.9972   -0.6797   -0.3735 C   0  0  0  0  0  0  0  0  0  0  0  0
   -4.2096   -0.2065    0.0390 N   0  0  0  0  0  0  0  0  0  0  0  0
   -4.1438    0.9813    0.6598 N   0  0  0  0  0  0  0  0  0  0  0  0
   -2.8280   -1.9788   -1.0796 C   0  0  0  0  0  0  0  0  0  0  0  0
   -2.5361   -3.1342   -0.1182 C   0  0  0  0  0  0  0  0  0  0  0  0
   -1.1075   -3.1377    0.4238 C   0  0  0  0  0  0  0  0  0  0  0  0
   -0.2000   -3.3286   -0.6607 O   0  0  0  0  0  0  0  0  0  0  0  0
    1.1577   -3.4763   -0.2316 C   0  0  0  0  0  0  0  0  0  0  0  0
    1.8271   -2.1824    0.1763 C   0  0  0  0  0  0  0  0  0  0  0  0
    1.5760   -1.0585   -0.5450 N   0  0  0  0  0  0  0  0  0  0  0  0
    2.2280    0.0721   -0.1863 C   0  0  0  0  0  0  0  0  0  0  0  0
    3.1491    0.1361    0.8096 N   0  0  0  0  0  0  0  0  0  0  0  0
    3.3683   -1.0042    1.4948 C   0  0  0  0  0  0  0  0  0  0  0  0
    2.7353   -2.1905    1.2148 C   0  0  0  0  0  0  0  0  0  0  0  0
    3.0090   -3.2989    1.9138 F   0  0  0  0  0  0  0  0  0  0  0  0
    2.8023    2.2606   -2.7992 H   0  0  0  0  0  0  0  0  0  0  0  0
    2.8405    0.4884   -2.8220 H   0  0  0  0  0  0  0  0  0  0  0  0
    4.0029    1.3896   -1.8367 H   0  0  0  0  0  0  0  0  0  0  0  0
    0.9669    1.3082   -1.4314 H   0  0  0  0  0  0  0  0  0  0  0  0
    3.0815    2.5568    0.2797 H   0  0  0  0  0  0  0  0  0  0  0  0
    2.2723    4.7035    1.3596 H   0  0  0  0  0  0  0  0  0  0  0  0
   -1.6574    4.5980    2.5539 H   0  0  0  0  0  0  0  0  0  0  0  0
   -3.1122    3.0551    1.5235 H   0  0  0  0  0  0  0  0  0  0  0  0
   -1.0257    0.2604   -0.1767 H   0  0  0  0  0  0  0  0  0  0  0  0
   -5.1198   -0.6414   -0.0674 H   0  0  0  0  0  0  0  0  0  0  0  0
   -3.7516   -2.2064   -1.6274 H   0  0  0  0  0  0  0  0  0  0  0  0
   -2.0387   -1.8918   -1.8354 H   0  0  0  0  0  0  0  0  0  0  0  0
   -3.2437   -3.1223    0.7194 H   0  0  0  0  0  0  0  0  0  0  0  0
   -2.6950   -4.0709   -0.6674 H   0  0  0  0  0  0  0  0  0  0  0  0
   -0.8810   -2.2058    0.9508 H   0  0  0  0  0  0  0  0  0  0  0  0
   -1.0033   -3.9684    1.1316 H   0  0  0  0  0  0  0  0  0  0  0  0
    1.2029   -4.2253    0.5680 H   0  0  0  0  0  0  0  0  0  0  0  0
    1.7178   -3.8815   -1.0818 H   0  0  0  0  0  0  0  0  0  0  0  0
    4.0962   -0.9407    2.2966 H   0  0  0  0  0  0  0  0  0  0  0  0
  1  2  1  0
  2  3  1  0
  3  4  1  0
  4  5  2  0
  5  6  1  0
  6  7  2  0
  7  8  1  0
  8  9  2  0
  8 10  1  0
 10 11  1  0
 11 12  1  0
 12 13  2  0
 13 14  1  0
 14 15  1  0
 13 16  1  0
 16 17  1  0
 17 18  1  0
 18 19  1  0
 19 20  1  0
 20 21  1  0
 21 22  2  0
 22 23  1  0
 23 24  2  0
 24 25  1  0
 25 26  2  0
 26 27  1  0
 23  2  1  0
  9  4  1  0
 15 11  2  0
 26 21  1  0
  1 28  1  0
  1 29  1  0
  1 30  1  0
  2 31  1  6
  3 32  1  0
  5 33  1  0
  7 34  1  0
 10 35  1  0
 12 36  1  0
 14 37  1  0
 16 38  1  0
 16 39  1  0
 17 40  1  0
 17 41  1  0
 18 42  1  0
 18 43  1  0
 20 44  1  0
 20 45  1  0
 25 46  1  0
M  END
>  <candidate_id>  (111) 
CAND_b604ce184b

>  <source_generator>  (111) 
macrocycle_linker

>  <parent_mol_id>  (111) 
JAK2_6111c0246b

>  <canonical_smiles>  (111) 
C[C@@H]1Nc2cncc(n2)Nc2cc([nH]n2)CCCOCc2nc1ncc2F

>  <inchikey>  (111) 
OFYZDOXYEQOWIR-JTQLQIEISA-N

>  <valid_rdkit>  (111) 
True

>  <unique_flag>  (111) 
True

>  <novel_flag>  (111) 
True

>  <mw>  (111) 
370.392

>  <logp>  (111) 
2.5083

>  <tpsa>  (111) 
113.53

>  <hbd>  (111) 
3

>  <hba>  (111) 
8

>  <rotatable_bonds>  (111) 
0

>  <qed>  (111) 
0.5531

>  <sa_score>  (111) 
3.563

>  <murcko_scaffold>  (111) 
c1cc2nc(n1)CNc1cncc(n1)Nc1cc([nH]n1)CCCOC2

>  <max_ring_size>  (111) 
17

>  <has_macrocycle_12_20>  (111) 
True

>  <has_constrained_ring_8_11>  (111) 
False

>  <passes_basic_filters>  (111) 
True

>  <generation_notes>  (111) 
macrocycle_bridge_oxa_path12_ring16

>  <best_score>  (111) 
nan

>  <qed_admet>  (111) 
0.5531

>  <sa_score_admet>  (111) 
3.563

>  <mw_admet>  (111) 
370.392

>  <logp_admet>  (111) 
2.5083

>  <tpsa_admet>  (111) 
113.53

>  <hbd_admet>  (111) 
3

>  <hba_admet>  (111) 
8

>  <rotatable_bonds_admet>  (111) 
0

>  <lipinski_violations>  (111) 
0

>  <veber_pass>  (111) 
True

>  <admet_score>  (111) 
0.798895

>  <synthesis_score>  (111) 
0.715222

>  <safety_proxy_score>  (111) 
1.0

>  <main_risk>  (111) 
no_major_descriptor_risk

>  <pose_score>  (111) 
0.5

>  <pose_decision>  (111) 
nan

>  <contacts_within_4A>  (111) 
nan

>  <hard_clashes_lt_1_8A>  (111) 
nan

>  <smiles>  (111) 
C[C@@H]1Nc2cncc(n2)Nc2cc([nH]n2)CCCOCc2nc1ncc2F

>  <docking_score>  (111) 
nan

>  <diversity_cluster>  (111) 
scaffold_f28cb1f6

>  <docking_score_scaled>  (111) 
0.0

>  <novelty_score>  (111) 
1.0

>  <final_weighted_score>  (111) 
0.492062

>  <rank>  (111) 
1546

>  <decision>  (111) 
await_docking

>  <diverse_rank>  (111) 
1002

>  <selection_tier>  (111) 
await_docking

$$$$
CAND_1dc4604721
     RDKit          3D

 41 43  0  0  0  0  0  0  0  0999 V2000
    5.8667   -3.3223   -0.8754 C   0  0  0  0  0  0  0  0  0  0  0  0
    4.5141   -3.0167   -0.5508 O   0  0  0  0  0  0  0  0  0  0  0  0
    4.1440   -1.7871   -1.0082 C   0  0  0  0  0  0  0  0  0  0  0  0
    2.9277   -1.4120   -0.7703 C   0  0  0  0  0  0  0  0  0  0  0  0
    1.7022   -1.0496   -0.5208 C   0  0  0  0  0  0  0  0  0  0  0  0
    0.7189   -1.9278    0.2813 C   0  0  0  0  0  0  0  0  0  0  0  0
   -0.5613   -1.2028    0.5727 N   0  0  0  0  0  0  0  0  0  0  0  0
   -1.0198   -0.3105   -0.4909 N   0  0  0  0  0  0  0  0  0  0  0  0
    0.0141    0.7516   -0.5824 C   0  0  0  0  0  0  0  0  0  0  0  0
    0.2765    1.4726    0.6899 N   0  0  0  0  0  0  0  0  0  0  0  0
   -0.0883    0.8384    1.7517 C   0  0  0  0  0  0  0  0  0  0  0  0
   -0.7292   -0.5141    1.7714 C   0  0  0  0  0  0  0  0  0  0  0  0
   -1.6393   -0.8015    2.7166 C   0  0  0  0  0  0  0  0  0  0  0  0
   -2.2057    0.1669    3.6418 C   0  0  0  0  0  0  0  0  0  0  0  0
   -3.1123    1.1016    3.2882 C   0  0  0  0  0  0  0  0  0  0  0  0
   -3.6897    1.2374    1.9608 C   0  0  0  0  0  0  0  0  0  0  0  0
   -3.0795    1.8034    0.9046 C   0  0  0  0  0  0  0  0  0  0  0  0
   -3.5873    1.6683   -0.4429 C   0  0  0  0  0  0  0  0  0  0  0  0
   -2.9466    1.8687   -1.6070 C   0  0  0  0  0  0  0  0  0  0  0  0
   -1.6054    2.3220   -1.9269 C   0  0  0  0  0  0  0  0  0  0  0  0
   -0.3766    1.8874   -1.5672 C   0  0  0  0  0  0  0  0  0  0  0  0
    0.7407    2.5525   -2.1186 O   0  0  0  0  0  0  0  0  0  0  0  0
    1.2726    0.1693   -1.0213 N   0  0  0  0  0  0  0  0  0  0  0  0
    6.0939   -4.3180   -0.4835 H   0  0  0  0  0  0  0  0  0  0  0  0
    6.0126   -3.3387   -1.9610 H   0  0  0  0  0  0  0  0  0  0  0  0
    6.5506   -2.6050   -0.4087 H   0  0  0  0  0  0  0  0  0  0  0  0
    4.8716   -1.1809   -1.5238 H   0  0  0  0  0  0  0  0  0  0  0  0
    1.1814   -2.2640    1.2172 H   0  0  0  0  0  0  0  0  0  0  0  0
    0.4750   -2.8169   -0.3121 H   0  0  0  0  0  0  0  0  0  0  0  0
   -0.9680   -0.7912   -1.3865 H   0  0  0  0  0  0  0  0  0  0  0  0
    0.0524    1.3248    2.7303 H   0  0  0  0  0  0  0  0  0  0  0  0
   -2.1644   -1.7521    2.6636 H   0  0  0  0  0  0  0  0  0  0  0  0
   -1.8961    0.0798    4.6801 H   0  0  0  0  0  0  0  0  0  0  0  0
   -3.5318    1.7533    4.0513 H   0  0  0  0  0  0  0  0  0  0  0  0
   -4.6499    0.7400    1.8378 H   0  0  0  0  0  0  0  0  0  0  0  0
   -2.1288    2.3101    1.0235 H   0  0  0  0  0  0  0  0  0  0  0  0
   -4.6144    1.3089   -0.5119 H   0  0  0  0  0  0  0  0  0  0  0  0
   -3.5437    1.7058   -2.5068 H   0  0  0  0  0  0  0  0  0  0  0  0
   -1.6510    3.1289   -2.6588 H   0  0  0  0  0  0  0  0  0  0  0  0
    0.4374    3.3838   -2.5178 H   0  0  0  0  0  0  0  0  0  0  0  0
    1.9366    0.8358   -1.3920 H   0  0  0  0  0  0  0  0  0  0  0  0
  1  2  1  0
  2  3  1  0
  3  4  2  0
  4  5  2  0
  5  6  1  0
  6  7  1  0
  7  8  1  0
  8  9  1  0
  9 10  1  0
 10 11  2  0
 11 12  1  0
 12 13  2  3
 13 14  1  0
 14 15  2  3
 15 16  1  0
 16 17  2  3
 17 18  1  0
 18 19  2  3
 19 20  1  0
 20 21  2  3
 21 22  1  0
  9 23  1  0
 23  5  1  0
 12  7  1  0
 21  9  1  0
  1 24  1  0
  1 25  1  0
  1 26  1  0
  3 27  1  0
  6 28  1  0
  6 29  1  0
  8 30  1  0
 11 31  1  0
 13 32  1  0
 14 33  1  0
 15 34  1  0
 16 35  1  0
 17 36  1  0
 18 37  1  0
 19 38  1  0
 20 39  1  0
 22 40  1  0
 23 41  1  0
M  END
>  <candidate_id>  (112) 
CAND_1dc4604721

>  <source_generator>  (112) 
selfies

>  <parent_mol_id>  (112) 
JAK2_0c0d246793

>  <canonical_smiles>  (112) 
COC=C=C1CN2NC3(N=CC2=CC=CC=CC=CC=C3O)N1

>  <inchikey>  (112) 
GEHXGIFVVBWGOY-UHFFFAOYSA-N

>  <valid_rdkit>  (112) 
True

>  <unique_flag>  (112) 
True

>  <novel_flag>  (112) 
True

>  <mw>  (112) 
310.357

>  <logp>  (112) 
1.7853

>  <tpsa>  (112) 
69.12

>  <hbd>  (112) 
3

>  <hba>  (112) 
6

>  <rotatable_bonds>  (112) 
1

>  <qed>  (112) 
0.5087

>  <sa_score>  (112) 
3.325

>  <murcko_scaffold>  (112) 
C=C1CN2NC3(C=CC=CC=CC=CC=C2C=N3)N1

>  <max_ring_size>  (112) 
13

>  <has_macrocycle_12_20>  (112) 
True

>  <has_constrained_ring_8_11>  (112) 
False

>  <passes_basic_filters>  (112) 
True

>  <generation_notes>  (112) 
selfies_token_mutation

>  <best_score>  (112) 
nan

>  <qed_admet>  (112) 
0.5087

>  <sa_score_admet>  (112) 
3.325

>  <mw_admet>  (112) 
310.357

>  <logp_admet>  (112) 
1.7853

>  <tpsa_admet>  (112) 
69.12

>  <hbd_admet>  (112) 
3

>  <hba_admet>  (112) 
6

>  <rotatable_bonds_admet>  (112) 
1

>  <lipinski_violations>  (112) 
0

>  <veber_pass>  (112) 
True

>  <admet_score>  (112) 
0.778915

>  <synthesis_score>  (112) 
0.741667

>  <safety_proxy_score>  (112) 
1.0

>  <main_risk>  (112) 
no_major_descriptor_risk

>  <pose_score>  (112) 
0.5

>  <pose_decision>  (112) 
nan

>  <contacts_within_4A>  (112) 
nan

>  <hard_clashes_lt_1_8A>  (112) 
nan

>  <smiles>  (112) 
COC=C=C1CN2NC3(N=CC2=CC=CC=CC=CC=C3O)N1

>  <docking_score>  (112) 
nan

>  <diversity_cluster>  (112) 
scaffold_bc0417ae

>  <docking_score_scaled>  (112) 
0.0

>  <novelty_score>  (112) 
1.0

>  <final_weighted_score>  (112) 
0.492033

>  <rank>  (112) 
1548

>  <decision>  (112) 
await_docking

>  <diverse_rank>  (112) 
1004

>  <selection_tier>  (112) 
await_docking

$$$$
CAND_7663dcf937
     RDKit          3D

 45 48  0  0  0  0  0  0  0  0999 V2000
    3.0967   -0.2572    2.0159 C   0  0  0  0  0  0  0  0  0  0  0  0
    1.9761   -0.6554    1.0485 C   0  0  2  0  0  0  0  0  0  0  0  0
    2.1998   -2.0371    0.6195 N   0  0  0  0  0  0  0  0  0  0  0  0
    1.1430   -2.7940    0.1338 C   0  0  0  0  0  0  0  0  0  0  0  0
    1.3908   -4.0392   -0.4479 C   0  0  0  0  0  0  0  0  0  0  0  0
    0.4307   -4.8303   -0.9757 N   0  0  0  0  0  0  0  0  0  0  0  0
   -0.8168   -4.3130   -0.8999 C   0  0  0  0  0  0  0  0  0  0  0  0
   -1.1188   -3.0732   -0.3264 C   0  0  0  0  0  0  0  0  0  0  0  0
   -0.1166   -2.3088    0.1711 N   0  0  0  0  0  0  0  0  0  0  0  0
   -2.4581   -2.6442   -0.3004 N   0  0  0  0  0  0  0  0  0  0  0  0
   -3.0234   -1.4858    0.0886 C   0  0  0  0  0  0  0  0  0  0  0  0
   -2.3678   -0.2973    0.4844 C   0  0  0  0  0  0  0  0  0  0  0  0
   -3.3694    0.6020    0.7810 C   0  0  0  0  0  0  0  0  0  0  0  0
   -4.5292   -0.0819    0.5558 N   0  0  0  0  0  0  0  0  0  0  0  0
   -4.3516   -1.3422    0.1273 N   0  0  0  0  0  0  0  0  0  0  0  0
   -3.4250    1.8696    1.1940 O   0  0  0  0  0  0  0  0  0  0  0  0
   -2.1728    2.5143    1.4419 C   0  0  0  0  0  0  0  0  0  0  0  0
   -1.5585    3.0588    0.1557 C   0  0  0  0  0  0  0  0  0  0  0  0
   -0.3363    3.7290    0.4657 O   0  0  0  0  0  0  0  0  0  0  0  0
    0.5626    3.7634   -0.6492 C   0  0  0  0  0  0  0  0  0  0  0  0
    1.2852    2.4512   -0.8819 C   0  0  0  0  0  0  0  0  0  0  0  0
    1.2933    1.5135    0.1082 N   0  0  0  0  0  0  0  0  0  0  0  0
    1.9520    0.3415   -0.1108 C   0  0  0  0  0  0  0  0  0  0  0  0
    2.6318    0.0974   -1.3068 C   0  0  0  0  0  0  0  0  0  0  0  0
    2.6234    1.0664   -2.3071 C   0  0  0  0  0  0  0  0  0  0  0  0
    1.9455    2.2545   -2.0875 C   0  0  0  0  0  0  0  0  0  0  0  0
    1.9365    3.1982   -3.0389 F   0  0  0  0  0  0  0  0  0  0  0  0
    3.1195   -0.9301    2.8804 H   0  0  0  0  0  0  0  0  0  0  0  0
    2.9563    0.7637    2.3883 H   0  0  0  0  0  0  0  0  0  0  0  0
    4.0805   -0.3050    1.5339 H   0  0  0  0  0  0  0  0  0  0  0  0
    1.0312   -0.5764    1.6015 H   0  0  0  0  0  0  0  0  0  0  0  0
    2.9408   -2.5497    1.0779 H   0  0  0  0  0  0  0  0  0  0  0  0
    2.3984   -4.4352   -0.5115 H   0  0  0  0  0  0  0  0  0  0  0  0
   -1.5938   -4.9408   -1.3236 H   0  0  0  0  0  0  0  0  0  0  0  0
   -3.1252   -3.3721   -0.5181 H   0  0  0  0  0  0  0  0  0  0  0  0
   -1.3042   -0.1206    0.5385 H   0  0  0  0  0  0  0  0  0  0  0  0
   -5.4725    0.2664    0.6749 H   0  0  0  0  0  0  0  0  0  0  0  0
   -1.4755    1.8594    1.9805 H   0  0  0  0  0  0  0  0  0  0  0  0
   -2.3694    3.3508    2.1231 H   0  0  0  0  0  0  0  0  0  0  0  0
   -1.4034    2.2454   -0.5614 H   0  0  0  0  0  0  0  0  0  0  0  0
   -2.2428    3.7727   -0.3172 H   0  0  0  0  0  0  0  0  0  0  0  0
    0.0165    4.0769   -1.5473 H   0  0  0  0  0  0  0  0  0  0  0  0
    1.3153    4.5278   -0.4285 H   0  0  0  0  0  0  0  0  0  0  0  0
    3.1649   -0.8349   -1.4631 H   0  0  0  0  0  0  0  0  0  0  0  0
    3.1402    0.9015   -3.2463 H   0  0  0  0  0  0  0  0  0  0  0  0
  1  2  1  0
  2  3  1  0
  3  4  1  0
  4  5  2  0
  5  6  1  0
  6  7  2  0
  7  8  1  0
  8  9  2  0
  8 10  1  0
 10 11  1  0
 11 12  1  0
 12 13  2  0
 13 14  1  0
 14 15  1  0
 13 16  1  0
 16 17  1  0
 17 18  1  0
 18 19  1  0
 19 20  1  0
 20 21  1  0
 21 22  2  0
 22 23  1  0
 23 24  2  0
 24 25  1  0
 25 26  2  0
 26 27  1  0
 23  2  1  0
  9  4  1  0
 15 11  2  0
 26 21  1  0
  1 28  1  0
  1 29  1  0
  1 30  1  0
  2 31  1  1
  3 32  1  0
  5 33  1  0
  7 34  1  0
 10 35  1  0
 12 36  1  0
 14 37  1  0
 17 38  1  0
 17 39  1  0
 18 40  1  0
 18 41  1  0
 20 42  1  0
 20 43  1  0
 24 44  1  0
 25 45  1  0
M  END
>  <candidate_id>  (113) 
CAND_7663dcf937

>  <source_generator>  (113) 
macrocycle_linker

>  <parent_mol_id>  (113) 
JAK2_5244fcd33d

>  <canonical_smiles>  (113) 
C[C@@H]1Nc2cncc(n2)Nc2cc([nH]n2)OCCOCc2nc1ccc2F

>  <inchikey>  (113) 
YZVWTRVFBQZGKN-JTQLQIEISA-N

>  <valid_rdkit>  (113) 
True

>  <unique_flag>  (113) 
True

>  <novel_flag>  (113) 
True

>  <mw>  (113) 
371.376

>  <logp>  (113) 
2.5595

>  <tpsa>  (113) 
109.87

>  <hbd>  (113) 
3

>  <hba>  (113) 
8

>  <rotatable_bonds>  (113) 
0

>  <qed>  (113) 
0.5531

>  <sa_score>  (113) 
3.569

>  <murcko_scaffold>  (113) 
c1cc2nc(c1)COCCOc1cc(n[nH]1)Nc1cncc(n1)NC2

>  <max_ring_size>  (113) 
17

>  <has_macrocycle_12_20>  (113) 
True

>  <has_constrained_ring_8_11>  (113) 
False

>  <passes_basic_filters>  (113) 
True

>  <generation_notes>  (113) 
macrocycle_bridge_oxa_path13_ring16

>  <best_score>  (113) 
nan

>  <qed_admet>  (113) 
0.5531

>  <sa_score_admet>  (113) 
3.569

>  <mw_admet>  (113) 
371.376

>  <logp_admet>  (113) 
2.5595

>  <tpsa_admet>  (113) 
109.87

>  <hbd_admet>  (113) 
3

>  <hba_admet>  (113) 
8

>  <rotatable_bonds_admet>  (113) 
0

>  <lipinski_violations>  (113) 
0

>  <veber_pass>  (113) 
True

>  <admet_score>  (113) 
0.798895

>  <synthesis_score>  (113) 
0.714556

>  <safety_proxy_score>  (113) 
1.0

>  <main_risk>  (113) 
no_major_descriptor_risk

>  <pose_score>  (113) 
0.5

>  <pose_decision>  (113) 
nan

>  <contacts_within_4A>  (113) 
nan

>  <hard_clashes_lt_1_8A>  (113) 
nan

>  <smiles>  (113) 
C[C@@H]1Nc2cncc(n2)Nc2cc([nH]n2)OCCOCc2nc1ccc2F

>  <docking_score>  (113) 
nan

>  <diversity_cluster>  (113) 
scaffold_5a2beb47

>  <docking_score_scaled>  (113) 
0.0

>  <novelty_score>  (113) 
1.0

>  <final_weighted_score>  (113) 
0.491962

>  <rank>  (113) 
1550

>  <decision>  (113) 
await_docking

>  <diverse_rank>  (113) 
1006

>  <selection_tier>  (113) 
await_docking

$$$$
CAND_0afbd4371b
     RDKit          3D

 46 49  0  0  0  0  0  0  0  0999 V2000
   -0.4795    5.9869    0.4942 C   0  0  0  0  0  0  0  0  0  0  0  0
    0.8244    5.4627    0.2607 O   0  0  0  0  0  0  0  0  0  0  0  0
    0.8527    4.0802    0.2074 C   0  0  0  0  0  0  0  0  0  0  0  0
    2.0880    3.5163   -0.0102 C   0  0  0  0  0  0  0  0  0  0  0  0
    2.1219    2.1445   -0.0462 C   0  0  0  0  0  0  0  0  0  0  0  0
    0.9883    1.4345    0.0698 N   0  0  0  0  0  0  0  0  0  0  0  0
   -0.1698    2.0579    0.2940 C   0  0  0  0  0  0  0  0  0  0  0  0
   -0.2821    3.3807    0.3768 N   0  0  0  0  0  0  0  0  0  0  0  0
   -1.2994    1.3110    0.4588 N   0  0  0  0  0  0  0  0  0  0  0  0
   -1.3417   -0.1097    0.1205 C   0  0  2  0  0  0  0  0  0  0  0  0
   -2.7916   -0.5640   -0.0991 C   0  0  0  0  0  0  0  0  0  0  0  0
   -3.7783    0.1034    0.5524 N   0  0  0  0  0  0  0  0  0  0  0  0
   -5.0412   -0.3289    0.3431 C   0  0  0  0  0  0  0  0  0  0  0  0
   -5.3497   -1.3843   -0.4772 C   0  0  0  0  0  0  0  0  0  0  0  0
   -6.6098   -1.7892   -0.6659 F   0  0  0  0  0  0  0  0  0  0  0  0
   -4.2893   -2.0014   -1.0919 C   0  0  0  0  0  0  0  0  0  0  0  0
   -3.0038   -1.6190   -0.9215 N   0  0  0  0  0  0  0  0  0  0  0  0
   -0.6771   -0.9694    1.2161 C   0  0  0  0  0  0  0  0  0  0  0  0
   -0.3614   -2.3903    0.7229 C   0  0  0  0  0  0  0  0  0  0  0  0
    0.9190   -3.1369    1.7935 S   0  0  0  0  0  0  0  0  0  0  0  0
    1.8398   -4.1980    0.6120 C   0  0  0  0  0  0  0  0  0  0  0  0
    2.3988   -3.5782   -0.6782 C   0  0  0  0  0  0  0  0  0  0  0  0
    3.0688   -2.2551   -0.4964 C   0  0  0  0  0  0  0  0  0  0  0  0
    4.1759   -1.8939    0.2422 C   0  0  0  0  0  0  0  0  0  0  0  0
    4.4378   -0.5350    0.3018 N   0  0  0  0  0  0  0  0  0  0  0  0
    3.4853    0.1350   -0.3145 C   0  0  0  0  0  0  0  0  0  0  0  0
    2.4667   -0.8632   -1.2918 S   0  0  0  0  0  0  0  0  0  0  0  0
    3.3567    1.4804   -0.2050 N   0  0  0  0  0  0  0  0  0  0  0  0
   -0.4001    7.0781    0.5172 H   0  0  0  0  0  0  0  0  0  0  0  0
   -0.8702    5.6612    1.4644 H   0  0  0  0  0  0  0  0  0  0  0  0
   -1.1656    5.7203   -0.3172 H   0  0  0  0  0  0  0  0  0  0  0  0
    2.9712    4.1270   -0.1272 H   0  0  0  0  0  0  0  0  0  0  0  0
   -2.1630    1.7981    0.6484 H   0  0  0  0  0  0  0  0  0  0  0  0
   -0.8283   -0.2546   -0.8393 H   0  0  0  0  0  0  0  0  0  0  0  0
   -5.8197    0.2133    0.8689 H   0  0  0  0  0  0  0  0  0  0  0  0
   -4.4476   -2.8441   -1.7566 H   0  0  0  0  0  0  0  0  0  0  0  0
    0.2519   -0.4859    1.5397 H   0  0  0  0  0  0  0  0  0  0  0  0
   -1.3178   -1.0187    2.1070 H   0  0  0  0  0  0  0  0  0  0  0  0
   -1.2537   -3.0219    0.7696 H   0  0  0  0  0  0  0  0  0  0  0  0
   -0.0219   -2.3674   -0.3128 H   0  0  0  0  0  0  0  0  0  0  0  0
    1.1989   -5.0490    0.3555 H   0  0  0  0  0  0  0  0  0  0  0  0
    2.6774   -4.6099    1.1874 H   0  0  0  0  0  0  0  0  0  0  0  0
    3.1224   -4.2793   -1.1141 H   0  0  0  0  0  0  0  0  0  0  0  0
    1.5896   -3.5054   -1.4155 H   0  0  0  0  0  0  0  0  0  0  0  0
    4.8087   -2.5739    0.7996 H   0  0  0  0  0  0  0  0  0  0  0  0
    4.1183    1.9352    0.2798 H   0  0  0  0  0  0  0  0  0  0  0  0
  1  2  1  0
  2  3  1  0
  3  4  2  0
  4  5  1  0
  5  6  2  0
  6  7  1  0
  7  8  2  0
  7  9  1  0
  9 10  1  0
 10 11  1  0
 11 12  2  0
 12 13  1  0
 13 14  2  0
 14 15  1  0
 14 16  1  0
 16 17  2  0
 10 18  1  0
 18 19  1  0
 19 20  1  0
 20 21  1  0
 21 22  1  0
 22 23  1  0
 23 24  2  0
 24 25  1  0
 25 26  2  0
 26 27  1  0
 26 28  1  0
  8  3  1  0
 17 11  1  0
 27 23  1  0
 28  5  1  0
  1 29  1  0
  1 30  1  0
  1 31  1  0
  4 32  1  0
  9 33  1  0
 10 34  1  6
 13 35  1  0
 16 36  1  0
 18 37  1  0
 18 38  1  0
 19 39  1  0
 19 40  1  0
 21 41  1  0
 21 42  1  0
 22 43  1  0
 22 44  1  0
 24 45  1  0
 28 46  1  0
M  END
>  <candidate_id>  (114) 
CAND_0afbd4371b

>  <source_generator>  (114) 
macrocycle_linker

>  <parent_mol_id>  (114) 
JAK2_eb0f359259

>  <canonical_smiles>  (114) 
COc1cc2nc(n1)N[C@H](c1ncc(F)cn1)CCSCCc1cnc(s1)N2

>  <inchikey>  (114) 
QDIKMLWPWPAHRP-LBPRGKRZSA-N

>  <valid_rdkit>  (114) 
True

>  <unique_flag>  (114) 
True

>  <novel_flag>  (114) 
True

>  <mw>  (114) 
419.511

>  <logp>  (114) 
3.447

>  <tpsa>  (114) 
97.74

>  <hbd>  (114) 
2

>  <hba>  (114) 
10

>  <rotatable_bonds>  (114) 
2

>  <qed>  (114) 
0.647

>  <sa_score>  (114) 
4.086

>  <murcko_scaffold>  (114) 
c1cnc([C@@H]2CCSCCc3cnc(s3)Nc3ccnc(n3)N2)nc1

>  <max_ring_size>  (114) 
14

>  <has_macrocycle_12_20>  (114) 
True

>  <has_constrained_ring_8_11>  (114) 
False

>  <passes_basic_filters>  (114) 
True

>  <generation_notes>  (114) 
macrocycle_bridge_thioether_path10_ring13

>  <best_score>  (114) 
nan

>  <qed_admet>  (114) 
0.647

>  <sa_score_admet>  (114) 
4.086

>  <mw_admet>  (114) 
419.511

>  <logp_admet>  (114) 
3.447

>  <tpsa_admet>  (114) 
97.74

>  <hbd_admet>  (114) 
2

>  <hba_admet>  (114) 
10

>  <rotatable_bonds_admet>  (114) 
2

>  <lipinski_violations>  (114) 
0

>  <veber_pass>  (114) 
True

>  <admet_score>  (114) 
0.84115

>  <synthesis_score>  (114) 
0.657111

>  <safety_proxy_score>  (114) 
1.0

>  <main_risk>  (114) 
no_major_descriptor_risk

>  <pose_score>  (114) 
0.5

>  <pose_decision>  (114) 
nan

>  <contacts_within_4A>  (114) 
nan

>  <hard_clashes_lt_1_8A>  (114) 
nan

>  <smiles>  (114) 
COc1cc2nc(n1)N[C@H](c1ncc(F)cn1)CCSCCc1cnc(s1)N2

>  <docking_score>  (114) 
nan

>  <diversity_cluster>  (114) 
scaffold_2d17596c

>  <docking_score_scaled>  (114) 
0.0

>  <novelty_score>  (114) 
1.0

>  <final_weighted_score>  (114) 
0.491797

>  <rank>  (114) 
1565

>  <decision>  (114) 
await_docking

>  <diverse_rank>  (114) 
1012

>  <selection_tier>  (114) 
await_docking

$$$$
CAND_582e6f4484
     RDKit          3D

 46 49  0  0  0  0  0  0  0  0999 V2000
    7.5835    1.0389   -1.4806 C   0  0  0  0  0  0  0  0  0  0  0  0
    6.2637    0.6329   -0.9366 C   0  0  0  0  0  0  0  0  0  0  0  0
    5.4001    1.3274   -0.1196 C   0  0  0  0  0  0  0  0  0  0  0  0
    4.2377    0.6673    0.2179 N   0  0  0  0  0  0  0  0  0  0  0  0
    4.1922   -0.5201   -0.3443 C   0  0  0  0  0  0  0  0  0  0  0  0
    3.2200   -1.4521   -0.2321 N   0  0  0  0  0  0  0  0  0  0  0  0
    1.9280   -1.2537    0.2858 C   0  0  0  0  0  0  0  0  0  0  0  0
    1.2142   -2.3607    0.6895 C   0  0  0  0  0  0  0  0  0  0  0  0
   -0.0304   -2.1073    1.2005 C   0  0  0  0  0  0  0  0  0  0  0  0
   -0.5333   -0.8809    1.4023 N   0  0  0  0  0  0  0  0  0  0  0  0
    0.1893    0.1318    0.9295 C   0  0  0  0  0  0  0  0  0  0  0  0
    1.3991   -0.0206    0.3804 N   0  0  0  0  0  0  0  0  0  0  0  0
   -0.3029    1.4037    0.9248 N   0  0  0  0  0  0  0  0  0  0  0  0
   -1.5165    1.8147    1.6107 C   0  0  1  0  0  0  0  0  0  0  0  0
   -1.4283    3.3306    1.8335 C   0  0  0  0  0  0  0  0  0  0  0  0
   -2.8460    1.4805    0.9055 C   0  0  0  0  0  0  0  0  0  0  0  0
   -3.9815    1.8586    1.5417 N   0  0  0  0  0  0  0  0  0  0  0  0
   -5.1528    1.4655    0.9950 C   0  0  0  0  0  0  0  0  0  0  0  0
   -5.2424    0.6883   -0.1320 C   0  0  0  0  0  0  0  0  0  0  0  0
   -6.4267    0.2764   -0.5991 F   0  0  0  0  0  0  0  0  0  0  0  0
   -4.0522    0.3377   -0.7279 C   0  0  0  0  0  0  0  0  0  0  0  0
   -2.8512    0.7723   -0.2486 N   0  0  0  0  0  0  0  0  0  0  0  0
   -4.0293   -0.6666   -1.8569 C   0  0  0  0  0  0  0  0  0  0  0  0
   -3.8882   -2.4196   -1.2852 S   0  0  0  0  0  0  0  0  0  0  0  0
   -2.5374   -2.1857   -0.0917 C   0  0  0  0  0  0  0  0  0  0  0  0
   -1.7696   -3.4254    0.3654 C   0  0  0  0  0  0  0  0  0  0  0  0
   -0.8704   -3.1649    1.4747 O   0  0  0  0  0  0  0  0  0  0  0  0
    5.5933   -0.9004   -1.2924 S   0  0  0  0  0  0  0  0  0  0  0  0
    7.5702    1.0379   -2.5754 H   0  0  0  0  0  0  0  0  0  0  0  0
    8.3706    0.3578   -1.1409 H   0  0  0  0  0  0  0  0  0  0  0  0
    7.8491    2.0485   -1.1502 H   0  0  0  0  0  0  0  0  0  0  0  0
    5.5664    2.3254    0.2674 H   0  0  0  0  0  0  0  0  0  0  0  0
    3.3537   -2.3258   -0.7171 H   0  0  0  0  0  0  0  0  0  0  0  0
    1.5876   -3.3691    0.5946 H   0  0  0  0  0  0  0  0  0  0  0  0
    0.2946    2.0702    0.4622 H   0  0  0  0  0  0  0  0  0  0  0  0
   -1.5496    1.3401    2.6004 H   0  0  0  0  0  0  0  0  0  0  0  0
   -1.4438    3.8739    0.8812 H   0  0  0  0  0  0  0  0  0  0  0  0
   -2.2618    3.6986    2.4417 H   0  0  0  0  0  0  0  0  0  0  0  0
   -0.4990    3.5947    2.3512 H   0  0  0  0  0  0  0  0  0  0  0  0
   -6.0471    1.7807    1.5221 H   0  0  0  0  0  0  0  0  0  0  0  0
   -4.9311   -0.5757   -2.4717 H   0  0  0  0  0  0  0  0  0  0  0  0
   -3.1770   -0.4570   -2.5128 H   0  0  0  0  0  0  0  0  0  0  0  0
   -2.9498   -1.6889    0.7920 H   0  0  0  0  0  0  0  0  0  0  0  0
   -1.8264   -1.5246   -0.5927 H   0  0  0  0  0  0  0  0  0  0  0  0
   -1.1974   -3.8671   -0.4599 H   0  0  0  0  0  0  0  0  0  0  0  0
   -2.4712   -4.1883    0.7203 H   0  0  0  0  0  0  0  0  0  0  0  0
  1  2  1  0
  2  3  2  0
  3  4  1  0
  4  5  2  0
  5  6  1  0
  6  7  1  0
  7  8  2  0
  8  9  1  0
  9 10  2  0
 10 11  1  0
 11 12  2  0
 11 13  1  0
 13 14  1  0
 14 15  1  0
 14 16  1  0
 16 17  1  0
 17 18  2  0
 18 19  1  0
 19 20  1  0
 19 21  2  0
 21 22  1  0
 21 23  1  0
 23 24  1  0
 24 25  1  0
 25 26  1  0
 26 27  1  0
  5 28  1  0
 28  2  1  0
 12  7  1  0
 22 16  2  0
 27  9  1  0
  1 29  1  0
  1 30  1  0
  1 31  1  0
  3 32  1  0
  6 33  1  0
  8 34  1  0
 13 35  1  0
 14 36  1  1
 15 37  1  0
 15 38  1  0
 15 39  1  0
 18 40  1  0
 23 41  1  0
 23 42  1  0
 25 43  1  0
 25 44  1  0
 26 45  1  0
 26 46  1  0
M  END
>  <candidate_id>  (115) 
CAND_582e6f4484

>  <source_generator>  (115) 
macrocycle_linker

>  <parent_mol_id>  (115) 
JAK2_eb0f359259

>  <canonical_smiles>  (115) 
Cc1cnc(Nc2cc3nc(n2)N[C@@H](C)c2ncc(F)c(n2)CSCCO3)s1

>  <inchikey>  (115) 
CUESHBYDGUQQPK-JTQLQIEISA-N

>  <valid_rdkit>  (115) 
True

>  <unique_flag>  (115) 
True

>  <novel_flag>  (115) 
True

>  <mw>  (115) 
419.511

>  <logp>  (115) 
3.7129

>  <tpsa>  (115) 
97.74

>  <hbd>  (115) 
2

>  <hba>  (115) 
10

>  <rotatable_bonds>  (115) 
2

>  <qed>  (115) 
0.6439

>  <sa_score>  (115) 
4.086

>  <murcko_scaffold>  (115) 
c1cc2nc(n1)CNc1nc(Nc3nccs3)cc(n1)OCCSC2

>  <max_ring_size>  (115) 
13

>  <has_macrocycle_12_20>  (115) 
True

>  <has_constrained_ring_8_11>  (115) 
False

>  <passes_basic_filters>  (115) 
True

>  <generation_notes>  (115) 
macrocycle_bridge_thioether_path9_ring12

>  <best_score>  (115) 
nan

>  <qed_admet>  (115) 
0.6439

>  <sa_score_admet>  (115) 
4.086

>  <mw_admet>  (115) 
419.511

>  <logp_admet>  (115) 
3.7129

>  <tpsa_admet>  (115) 
97.74

>  <hbd_admet>  (115) 
2

>  <hba_admet>  (115) 
10

>  <rotatable_bonds_admet>  (115) 
2

>  <lipinski_violations>  (115) 
0

>  <veber_pass>  (115) 
True

>  <admet_score>  (115) 
0.839755

>  <synthesis_score>  (115) 
0.657111

>  <safety_proxy_score>  (115) 
1.0

>  <main_risk>  (115) 
no_major_descriptor_risk

>  <pose_score>  (115) 
0.5

>  <pose_decision>  (115) 
nan

>  <contacts_within_4A>  (115) 
nan

>  <hard_clashes_lt_1_8A>  (115) 
nan

>  <smiles>  (115) 
Cc1cnc(Nc2cc3nc(n2)N[C@@H](C)c2ncc(F)c(n2)CSCCO3)s1

>  <docking_score>  (115) 
nan

>  <diversity_cluster>  (115) 
scaffold_dd438240

>  <docking_score_scaled>  (115) 
0.0

>  <novelty_score>  (115) 
1.0

>  <final_weighted_score>  (115) 
0.491518

>  <rank>  (115) 
1589

>  <decision>  (115) 
await_docking

>  <diverse_rank>  (115) 
1020

>  <selection_tier>  (115) 
await_docking

$$$$
CAND_945bfd7ab9
     RDKit          3D

 48 51  0  0  0  0  0  0  0  0999 V2000
    7.0070   -2.1901    0.5392 F   0  0  0  0  0  0  0  0  0  0  0  0
    5.8464   -1.5313    0.6187 C   0  0  0  0  0  0  0  0  0  0  0  0
    5.0052   -1.6695    1.6934 C   0  0  0  0  0  0  0  0  0  0  0  0
    3.8262   -1.0178    1.8045 N   0  0  0  0  0  0  0  0  0  0  0  0
    3.4805   -0.2055    0.7774 C   0  0  0  0  0  0  0  0  0  0  0  0
    2.1601    0.5821    0.8873 C   0  0  2  0  0  0  0  0  0  0  0  0
    0.9805   -0.3515    1.2129 C   0  0  0  0  0  0  0  0  0  0  0  0
    0.5201   -1.2583    0.0665 C   0  0  0  0  0  0  0  0  0  0  0  0
   -0.7747   -1.9788    0.4595 C   0  0  0  0  0  0  0  0  0  0  0  0
   -1.4263   -2.6923   -0.7283 C   0  0  0  0  0  0  0  0  0  0  0  0
   -2.9349   -2.9061   -0.5257 C   0  0  0  0  0  0  0  0  0  0  0  0
   -3.8169   -1.8460   -1.2024 C   0  0  0  0  0  0  0  0  0  0  0  0
   -3.6987   -0.4814   -0.6195 C   0  0  0  0  0  0  0  0  0  0  0  0
   -2.7633    0.5148   -0.7965 C   0  0  0  0  0  0  0  0  0  0  0  0
   -3.1800    1.5892    0.0227 C   0  0  0  0  0  0  0  0  0  0  0  0
   -4.3429    1.3135    0.6176 N   0  0  0  0  0  0  0  0  0  0  0  0
   -4.6141    0.0502    0.2458 N   0  0  0  0  0  0  0  0  0  0  0  0
   -2.5418    2.7698    0.1433 N   0  0  0  0  0  0  0  0  0  0  0  0
   -1.1915    3.0733   -0.1181 C   0  0  0  0  0  0  0  0  0  0  0  0
   -0.2513    2.1096   -0.0096 N   0  0  0  0  0  0  0  0  0  0  0  0
    1.0082    2.3881   -0.3633 C   0  0  0  0  0  0  0  0  0  0  0  0
    1.3966    3.5776   -0.8388 N   0  0  0  0  0  0  0  0  0  0  0  0
    0.4542    4.5404   -0.9046 C   0  0  0  0  0  0  0  0  0  0  0  0
   -0.8548    4.3408   -0.5490 C   0  0  0  0  0  0  0  0  0  0  0  0
   -1.7592    5.3243   -0.6490 F   0  0  0  0  0  0  0  0  0  0  0  0
    1.9668    1.4182   -0.3002 N   0  0  0  0  0  0  0  0  0  0  0  0
    4.2632    0.0069   -0.3131 N   0  0  0  0  0  0  0  0  0  0  0  0
    5.4291   -0.6736   -0.3667 C   0  0  0  0  0  0  0  0  0  0  0  0
    5.2620   -2.3242    2.5192 H   0  0  0  0  0  0  0  0  0  0  0  0
    2.3028    1.2512    1.7473 H   0  0  0  0  0  0  0  0  0  0  0  0
    0.1333    0.2562    1.5513 H   0  0  0  0  0  0  0  0  0  0  0  0
    1.2311   -0.9820    2.0764 H   0  0  0  0  0  0  0  0  0  0  0  0
    1.2958   -1.9929   -0.1773 H   0  0  0  0  0  0  0  0  0  0  0  0
    0.3443   -0.6607   -0.8341 H   0  0  0  0  0  0  0  0  0  0  0  0
   -0.5640   -2.7095    1.2505 H   0  0  0  0  0  0  0  0  0  0  0  0
   -1.4700   -1.2564    0.8974 H   0  0  0  0  0  0  0  0  0  0  0  0
   -1.2478   -2.1521   -1.6651 H   0  0  0  0  0  0  0  0  0  0  0  0
   -0.9401   -3.6697   -0.8400 H   0  0  0  0  0  0  0  0  0  0  0  0
   -3.1961   -3.8726   -0.9760 H   0  0  0  0  0  0  0  0  0  0  0  0
   -3.1771   -2.9858    0.5411 H   0  0  0  0  0  0  0  0  0  0  0  0
   -4.8620   -2.1755   -1.1393 H   0  0  0  0  0  0  0  0  0  0  0  0
   -3.5785   -1.8009   -2.2726 H   0  0  0  0  0  0  0  0  0  0  0  0
   -1.8845    0.4687   -1.4237 H   0  0  0  0  0  0  0  0  0  0  0  0
   -5.4551   -0.3843    0.6098 H   0  0  0  0  0  0  0  0  0  0  0  0
   -3.0392    3.5100    0.6207 H   0  0  0  0  0  0  0  0  0  0  0  0
    0.7891    5.5038   -1.2726 H   0  0  0  0  0  0  0  0  0  0  0  0
    2.8267    1.6829   -0.7678 H   0  0  0  0  0  0  0  0  0  0  0  0
    6.0358   -0.5028   -1.2494 H   0  0  0  0  0  0  0  0  0  0  0  0
  1  2  1  0
  2  3  2  0
  3  4  1  0
  4  5  2  0
  5  6  1  0
  6  7  1  0
  7  8  1  0
  8  9  1  0
  9 10  1  0
 10 11  1  0
 11 12  1  0
 12 13  1  0
 13 14  2  0
 14 15  1  0
 15 16  2  0
 16 17  1  0
 15 18  1  0
 18 19  1  0
 19 20  1  0
 20 21  2  0
 21 22  1  0
 22 23  2  0
 23 24  1  0
 24 25  1  0
 21 26  1  0
  5 27  1  0
 27 28  2  0
 28  2  1  0
 26  6  1  0
 17 13  1  0
 24 19  2  0
  3 29  1  0
  6 30  1  1
  7 31  1  0
  7 32  1  0
  8 33  1  0
  8 34  1  0
  9 35  1  0
  9 36  1  0
 10 37  1  0
 10 38  1  0
 11 39  1  0
 11 40  1  0
 12 41  1  0
 12 42  1  0
 14 43  1  0
 17 44  1  0
 18 45  1  0
 23 46  1  0
 26 47  1  0
 28 48  1  0
M  END
>  <candidate_id>  (116) 
CAND_945bfd7ab9

>  <source_generator>  (116) 
macrocycle_linker

>  <parent_mol_id>  (116) 
JAK2_fc1e2398b3

>  <canonical_smiles>  (116) 
Fc1cnc([C@@H]2CCCCCCc3cc(n[nH]3)Nc3nc(ncc3F)N2)nc1

>  <inchikey>  (116) 
CRCDAXMYVFTQLI-AWEZNQCLSA-N

>  <valid_rdkit>  (116) 
True

>  <unique_flag>  (116) 
True

>  <novel_flag>  (116) 
True

>  <mw>  (116) 
386.41

>  <logp>  (116) 
3.6713

>  <tpsa>  (116) 
104.3

>  <hbd>  (116) 
3

>  <hba>  (116) 
7

>  <rotatable_bonds>  (116) 
1

>  <qed>  (116) 
0.586

>  <sa_score>  (116) 
3.777

>  <murcko_scaffold>  (116) 
c1cnc([C@@H]2CCCCCCc3cc(n[nH]3)Nc3ccnc(n3)N2)nc1

>  <max_ring_size>  (116) 
15

>  <has_macrocycle_12_20>  (116) 
True

>  <has_constrained_ring_8_11>  (116) 
False

>  <passes_basic_filters>  (116) 
True

>  <generation_notes>  (116) 
macrocycle_bridge_alkyl_path10_ring14

>  <best_score>  (116) 
nan

>  <qed_admet>  (116) 
0.586

>  <sa_score_admet>  (116) 
3.777

>  <mw_admet>  (116) 
386.41

>  <logp_admet>  (116) 
3.6713

>  <tpsa_admet>  (116) 
104.3

>  <hbd_admet>  (116) 
3

>  <hba_admet>  (116) 
7

>  <rotatable_bonds_admet>  (116) 
1

>  <lipinski_violations>  (116) 
0

>  <veber_pass>  (116) 
True

>  <admet_score>  (116) 
0.8137

>  <synthesis_score>  (116) 
0.691444

>  <safety_proxy_score>  (116) 
1.0

>  <main_risk>  (116) 
no_major_descriptor_risk

>  <pose_score>  (116) 
0.5

>  <pose_decision>  (116) 
nan

>  <contacts_within_4A>  (116) 
nan

>  <hard_clashes_lt_1_8A>  (116) 
nan

>  <smiles>  (116) 
Fc1cnc([C@@H]2CCCCCCc3cc(n[nH]3)Nc3nc(ncc3F)N2)nc1

>  <docking_score>  (116) 
nan

>  <diversity_cluster>  (116) 
scaffold_d2b58a32

>  <docking_score_scaled>  (116) 
0.0

>  <novelty_score>  (116) 
1.0

>  <final_weighted_score>  (116) 
0.491457

>  <rank>  (116) 
1590

>  <decision>  (116) 
await_docking

>  <diverse_rank>  (116) 
1021

>  <selection_tier>  (116) 
await_docking

$$$$
CAND_0644c5205e
     RDKit          3D

 66 69  0  0  0  0  0  0  0  0999 V2000
    7.1753   -3.8894   -1.6537 N   0  0  0  0  0  0  0  0  0  0  0  0
    6.1023   -3.7442   -1.2339 C   0  0  0  0  0  0  0  0  0  0  0  0
    4.7392   -3.6628   -0.7021 C   0  0  0  0  0  0  0  0  0  0  0  0
    4.2782   -2.2349   -0.4908 C   0  0  0  0  0  0  0  0  0  0  0  0
    4.9727   -1.2763   -0.8281 O   0  0  0  0  0  0  0  0  0  0  0  0
    3.0262   -2.0560    0.0956 N   0  0  0  0  0  0  0  0  0  0  0  0
    2.0860   -3.1170    0.4585 C   0  0  0  0  0  0  0  0  0  0  0  0
    0.7274   -2.8935   -0.2123 C   0  0  0  0  0  0  0  0  0  0  0  0
    0.1454   -1.4818    0.0451 C   0  0  1  0  0  0  0  0  0  0  0  0
   -0.3855   -1.3550    1.4978 C   0  0  0  0  0  0  0  0  0  0  0  0
   -1.7393   -2.0601    1.7510 C   0  0  0  0  0  0  0  0  0  0  0  0
   -2.8541   -1.3130    1.0263 C   0  0  0  0  0  0  0  0  0  0  0  0
   -4.2768   -1.8148    1.2345 C   0  0  0  0  0  0  0  0  0  0  0  0
   -5.3122   -0.9145    0.5295 C   0  0  0  0  0  0  0  0  0  0  0  0
   -5.2644   -1.0035   -1.3057 S   0  0  0  0  0  0  0  0  0  0  0  0
   -4.6629    0.6778   -1.7584 C   0  0  0  0  0  0  0  0  0  0  0  0
   -3.2213    0.8974   -1.3207 C   0  0  0  0  0  0  0  0  0  0  0  0
   -2.5483    2.1518   -1.8743 C   0  0  0  0  0  0  0  0  0  0  0  0
   -1.2076    2.4120   -1.1585 C   0  0  0  0  0  0  0  0  0  0  0  0
   -0.0868    1.4115   -1.5089 C   0  0  0  0  0  0  0  0  0  0  0  0
    0.6961    0.9696   -0.3431 N   0  0  0  0  0  0  0  0  0  0  0  0
    1.2203    1.8818    0.5606 C   0  0  0  0  0  0  0  0  0  0  0  0
    1.2601    1.5153    1.8717 N   0  0  0  0  0  0  0  0  0  0  0  0
    1.7143    2.3804    2.7977 C   0  0  0  0  0  0  0  0  0  0  0  0
    2.1796    3.6209    2.6087 N   0  0  0  0  0  0  0  0  0  0  0  0
    2.1668    3.9464    1.3099 C   0  0  0  0  0  0  0  0  0  0  0  0
    2.6147    5.1429    0.8223 N   0  0  0  0  0  0  0  0  0  0  0  0
    2.5011    5.1587   -0.5414 C   0  0  0  0  0  0  0  0  0  0  0  0
    1.9641    3.9478   -0.9260 C   0  0  0  0  0  0  0  0  0  0  0  0
    1.7233    3.1686    0.2473 C   0  0  0  0  0  0  0  0  0  0  0  0
    1.2167   -0.4226   -0.3564 C   0  0  1  0  0  0  0  0  0  0  0  0
    2.5514   -0.6884    0.3772 C   0  0  0  0  0  0  0  0  0  0  0  0
    4.6990   -4.1912    0.2565 H   0  0  0  0  0  0  0  0  0  0  0  0
    4.0507   -4.1499   -1.4011 H   0  0  0  0  0  0  0  0  0  0  0  0
    2.4607   -4.1023    0.1750 H   0  0  0  0  0  0  0  0  0  0  0  0
    1.9945   -3.1149    1.5497 H   0  0  0  0  0  0  0  0  0  0  0  0
    0.8523   -3.0200   -1.2963 H   0  0  0  0  0  0  0  0  0  0  0  0
    0.0270   -3.6715    0.1080 H   0  0  0  0  0  0  0  0  0  0  0  0
   -0.6924   -1.3566   -0.6464 H   0  0  0  0  0  0  0  0  0  0  0  0
   -0.5210   -0.2998    1.7518 H   0  0  0  0  0  0  0  0  0  0  0  0
    0.3480   -1.7470    2.2099 H   0  0  0  0  0  0  0  0  0  0  0  0
   -1.7075   -3.1073    1.4355 H   0  0  0  0  0  0  0  0  0  0  0  0
   -1.9426   -2.0528    2.8284 H   0  0  0  0  0  0  0  0  0  0  0  0
   -2.8101   -0.2672    1.3476 H   0  0  0  0  0  0  0  0  0  0  0  0
   -2.6456   -1.3678   -0.0399 H   0  0  0  0  0  0  0  0  0  0  0  0
   -4.3705   -2.8504    0.8865 H   0  0  0  0  0  0  0  0  0  0  0  0
   -4.4986   -1.8204    2.3086 H   0  0  0  0  0  0  0  0  0  0  0  0
   -6.3123   -1.2501    0.8249 H   0  0  0  0  0  0  0  0  0  0  0  0
   -5.2173    0.1244    0.8614 H   0  0  0  0  0  0  0  0  0  0  0  0
   -5.3304    1.4295   -1.3252 H   0  0  0  0  0  0  0  0  0  0  0  0
   -4.7370    0.7595   -2.8477 H   0  0  0  0  0  0  0  0  0  0  0  0
   -2.6194    0.0347   -1.6194 H   0  0  0  0  0  0  0  0  0  0  0  0
   -3.2082    0.9854   -0.2336 H   0  0  0  0  0  0  0  0  0  0  0  0
   -3.2039    3.0155   -1.7107 H   0  0  0  0  0  0  0  0  0  0  0  0
   -2.3935    2.0601   -2.9552 H   0  0  0  0  0  0  0  0  0  0  0  0
   -0.8743    3.4193   -1.4349 H   0  0  0  0  0  0  0  0  0  0  0  0
   -1.3930    2.4351   -0.0774 H   0  0  0  0  0  0  0  0  0  0  0  0
   -0.5223    0.5319   -1.9939 H   0  0  0  0  0  0  0  0  0  0  0  0
    0.5784    1.8387   -2.2667 H   0  0  0  0  0  0  0  0  0  0  0  0
    1.7009    2.0258    3.8235 H   0  0  0  0  0  0  0  0  0  0  0  0
    2.9903    5.8783    1.4033 H   0  0  0  0  0  0  0  0  0  0  0  0
    2.8224    6.0161   -1.1179 H   0  0  0  0  0  0  0  0  0  0  0  0
    1.7806    3.6575   -1.9504 H   0  0  0  0  0  0  0  0  0  0  0  0
    1.4464   -0.6242   -1.4149 H   0  0  0  0  0  0  0  0  0  0  0  0
    3.3013    0.0503    0.0768 H   0  0  0  0  0  0  0  0  0  0  0  0
    2.4454   -0.6238    1.4648 H   0  0  0  0  0  0  0  0  0  0  0  0
  1  2  3  0
  2  3  1  0
  3  4  1  0
  4  5  2  0
  4  6  1  0
  6  7  1  0
  7  8  1  0
  8  9  1  0
  9 10  1  0
 10 11  1  0
 11 12  1  0
 12 13  1  0
 13 14  1  0
 14 15  1  0
 15 16  1  0
 16 17  1  0
 17 18  1  0
 18 19  1  0
 19 20  1  0
 20 21  1  0
 21 22  1  0
 22 23  2  0
 23 24  1  0
 24 25  2  0
 25 26  1  0
 26 27  1  0
 27 28  1  0
 28 29  2  0
 29 30  1  0
 21 31  1  0
 31 32  1  0
 32  6  1  0
 31  9  1  0
 30 22  1  0
 30 26  2  0
  3 33  1  0
  3 34  1  0
  7 35  1  0
  7 36  1  0
  8 37  1  0
  8 38  1  0
  9 39  1  6
 10 40  1  0
 10 41  1  0
 11 42  1  0
 11 43  1  0
 12 44  1  0
 12 45  1  0
 13 46  1  0
 13 47  1  0
 14 48  1  0
 14 49  1  0
 16 50  1  0
 16 51  1  0
 17 52  1  0
 17 53  1  0
 18 54  1  0
 18 55  1  0
 19 56  1  0
 19 57  1  0
 20 58  1  0
 20 59  1  0
 24 60  1  0
 27 61  1  0
 28 62  1  0
 29 63  1  0
 31 64  1  6
 32 65  1  0
 32 66  1  0
M  END
>  <candidate_id>  (117) 
CAND_0644c5205e

>  <source_generator>  (117) 
macrocycle_linker

>  <parent_mol_id>  (117) 
JAK2_3f3d946705

>  <canonical_smiles>  (117) 
N#CCC(=O)N1CC[C@H]2CCCCCSCCCCCN(c3ncnc4[nH]ccc34)[C@H]2C1

>  <inchikey>  (117) 
GGVPLGBLOPTKDJ-CTNGQTDRSA-N

>  <valid_rdkit>  (117) 
True

>  <unique_flag>  (117) 
True

>  <novel_flag>  (117) 
True

>  <mw>  (117) 
454.644

>  <logp>  (117) 
4.3726

>  <tpsa>  (117) 
88.91

>  <hbd>  (117) 
1

>  <hba>  (117) 
6

>  <rotatable_bonds>  (117) 
2

>  <qed>  (117) 
0.7247

>  <sa_score>  (117) 
4.531

>  <murcko_scaffold>  (117) 
c1nc(N2CCCCCSCCCCC[C@@H]3CCNC[C@@H]32)c2cc[nH]c2n1

>  <max_ring_size>  (117) 
14

>  <has_macrocycle_12_20>  (117) 
True

>  <has_constrained_ring_8_11>  (117) 
False

>  <passes_basic_filters>  (117) 
True

>  <generation_notes>  (117) 
macrocycle_bridge_thioether_path4_ring13

>  <best_score>  (117) 
nan

>  <qed_admet>  (117) 
0.7247

>  <sa_score_admet>  (117) 
4.531

>  <mw_admet>  (117) 
454.644

>  <logp_admet>  (117) 
4.3726

>  <tpsa_admet>  (117) 
88.91

>  <hbd_admet>  (117) 
1

>  <hba_admet>  (117) 
6

>  <rotatable_bonds_admet>  (117) 
2

>  <lipinski_violations>  (117) 
0

>  <veber_pass>  (117) 
True

>  <admet_score>  (117) 
0.876115

>  <synthesis_score>  (117) 
0.607667

>  <safety_proxy_score>  (117) 
1.0

>  <main_risk>  (117) 
no_major_descriptor_risk

>  <pose_score>  (117) 
0.5

>  <pose_decision>  (117) 
nan

>  <contacts_within_4A>  (117) 
nan

>  <hard_clashes_lt_1_8A>  (117) 
nan

>  <smiles>  (117) 
N#CCC(=O)N1CC[C@H]2CCCCCSCCCCCN(c3ncnc4[nH]ccc34)[C@H]2C1

>  <docking_score>  (117) 
nan

>  <diversity_cluster>  (117) 
scaffold_68bd27be

>  <docking_score_scaled>  (117) 
0.0

>  <novelty_score>  (117) 
1.0

>  <final_weighted_score>  (117) 
0.491373

>  <rank>  (117) 
1594

>  <decision>  (117) 
await_docking

>  <diverse_rank>  (117) 
1024

>  <selection_tier>  (117) 
await_docking

$$$$
CAND_d505721a30
     RDKit          3D

 43 45  0  0  0  0  0  0  0  0999 V2000
    4.9304    0.7789   -1.9726 C   0  0  0  0  0  0  0  0  0  0  0  0
    3.9734    0.2436   -0.9256 C   0  0  0  0  0  0  0  0  0  0  0  0
    3.2479    1.5772    0.0285 S   0  0  0  0  0  0  0  0  0  0  0  0
    4.2946    2.2167    0.7927 O   0  0  0  0  0  0  0  0  0  0  0  0
    2.3418    2.3265   -0.8077 O   0  0  0  0  0  0  0  0  0  0  0  0
    2.3245    0.7542    1.1677 N   0  0  0  0  0  0  0  0  0  0  0  0
    1.2152   -0.1265    0.7290 C   0  0  0  0  0  0  0  0  0  0  0  0
   -0.1259    0.1279    1.4915 C   0  0  0  0  0  0  0  0  0  0  0  0
    0.1910    0.2601    3.0100 C   0  0  0  0  0  0  0  0  0  0  0  0
   -0.9536    0.6316    3.8600 C   0  0  0  0  0  0  0  0  0  0  0  0
   -1.8264    0.9726    4.5441 N   0  0  0  0  0  0  0  0  0  0  0  0
   -0.8323    1.4344    0.9644 C   0  0  0  0  0  0  0  0  0  0  0  0
   -1.4752    1.3306   -0.3937 C   0  0  0  0  0  0  0  0  0  0  0  0
   -0.9013    1.5456   -1.6291 C   0  0  0  0  0  0  0  0  0  0  0  0
   -1.7907    1.1339   -2.5888 N   0  0  0  0  0  0  0  0  0  0  0  0
   -2.9133    0.6031   -2.0006 C   0  0  0  0  0  0  0  0  0  0  0  0
   -2.8207    0.9250   -0.6573 C   0  0  0  0  0  0  0  0  0  0  0  0
   -3.7955   -0.0842   -2.7720 N   0  0  0  0  0  0  0  0  0  0  0  0
   -4.2600   -1.2194   -2.3266 C   0  0  0  0  0  0  0  0  0  0  0  0
   -3.9950   -1.7660   -1.0927 N   0  0  0  0  0  0  0  0  0  0  0  0
   -2.9443   -2.4514   -1.1030 N   0  0  0  0  0  0  0  0  0  0  0  0
   -2.2246   -2.2197    0.0786 C   0  0  0  0  0  0  0  0  0  0  0  0
   -2.6972   -2.2257    1.3996 C   0  0  0  0  0  0  0  0  0  0  0  0
   -1.8396   -1.5457    2.1760 N   0  0  0  0  0  0  0  0  0  0  0  0
   -0.9729   -1.0667    1.2520 N   0  0  0  0  0  0  0  0  0  0  0  0
   -1.0111   -1.6615    0.0360 N   0  0  0  0  0  0  0  0  0  0  0  0
    4.4169    1.4504   -2.6682 H   0  0  0  0  0  0  0  0  0  0  0  0
    5.7483    1.3400   -1.5094 H   0  0  0  0  0  0  0  0  0  0  0  0
    5.3640   -0.0443   -2.5484 H   0  0  0  0  0  0  0  0  0  0  0  0
    3.1631   -0.3097   -1.4070 H   0  0  0  0  0  0  0  0  0  0  0  0
    4.5016   -0.4115   -0.2267 H   0  0  0  0  0  0  0  0  0  0  0  0
    2.9016    0.4333    1.9485 H   0  0  0  0  0  0  0  0  0  0  0  0
    1.5605   -1.1546    0.9063 H   0  0  0  0  0  0  0  0  0  0  0  0
    1.0658   -0.0361   -0.3512 H   0  0  0  0  0  0  0  0  0  0  0  0
    0.9460    1.0391    3.1712 H   0  0  0  0  0  0  0  0  0  0  0  0
    0.6269   -0.6752    3.3850 H   0  0  0  0  0  0  0  0  0  0  0  0
   -1.6322    1.7328    1.6534 H   0  0  0  0  0  0  0  0  0  0  0  0
   -0.1153    2.2653    0.9634 H   0  0  0  0  0  0  0  0  0  0  0  0
    0.0793    1.9014   -1.9156 H   0  0  0  0  0  0  0  0  0  0  0  0
   -1.6146    1.1027   -3.5820 H   0  0  0  0  0  0  0  0  0  0  0  0
   -3.5723    0.6956    0.0871 H   0  0  0  0  0  0  0  0  0  0  0  0
   -4.9545   -1.7812   -2.9733 H   0  0  0  0  0  0  0  0  0  0  0  0
   -3.6246   -2.6016    1.8065 H   0  0  0  0  0  0  0  0  0  0  0  0
  1  2  1  0
  2  3  1  0
  3  4  2  0
  3  5  2  0
  3  6  1  0
  6  7  1  0
  7  8  1  0
  8  9  1  0
  9 10  1  0
 10 11  3  0
  8 12  1  0
 12 13  1  0
 13 14  2  0
 14 15  1  0
 15 16  1  0
 16 17  2  0
 16 18  1  0
 18 19  2  3
 19 20  1  0
 20 21  2  3
 21 22  1  0
 22 23  1  0
 23 24  2  0
 24 25  1  0
 25 26  1  0
 25  8  1  0
 17 13  1  0
 26 22  2  0
  1 27  1  0
  1 28  1  0
  1 29  1  0
  2 30  1  0
  2 31  1  0
  6 32  1  0
  7 33  1  0
  7 34  1  0
  9 35  1  0
  9 36  1  0
 12 37  1  0
 12 38  1  0
 14 39  1  0
 15 40  1  0
 17 41  1  0
 19 42  1  0
 23 43  1  0
M  END
>  <candidate_id>  (118) 
CAND_d505721a30

>  <source_generator>  (118) 
selfies

>  <parent_mol_id>  (118) 
JAK2_9dc9b86668

>  <canonical_smiles>  (118) 
CCS(=O)(=O)NCC1(CC#N)Cc2c[nH]c(c2)N=CN=Nc2cnn1n2

>  <inchikey>  (118) 
MEZRUCWIPQZMBO-UHFFFAOYSA-N

>  <valid_rdkit>  (118) 
True

>  <unique_flag>  (118) 
True

>  <novel_flag>  (118) 
True

>  <mw>  (118) 
375.418

>  <logp>  (118) 
1.1543

>  <tpsa>  (118) 
153.54

>  <hbd>  (118) 
2

>  <hba>  (118) 
8

>  <rotatable_bonds>  (118) 
5

>  <qed>  (118) 
0.8022

>  <sa_score>  (118) 
3.966

>  <murcko_scaffold>  (118) 
C1=Nc2cc(c[nH]2)CCn2ncc(n2)N=N1

>  <max_ring_size>  (118) 
12

>  <has_macrocycle_12_20>  (118) 
True

>  <has_constrained_ring_8_11>  (118) 
False

>  <passes_basic_filters>  (118) 
True

>  <generation_notes>  (118) 
selfies_token_mutation

>  <best_score>  (118) 
nan

>  <qed_admet>  (118) 
0.8022

>  <sa_score_admet>  (118) 
3.966

>  <mw_admet>  (118) 
375.418

>  <logp_admet>  (118) 
1.1543

>  <tpsa_admet>  (118) 
153.54

>  <hbd_admet>  (118) 
2

>  <hba_admet>  (118) 
8

>  <rotatable_bonds_admet>  (118) 
5

>  <lipinski_violations>  (118) 
0

>  <veber_pass>  (118) 
False

>  <admet_score>  (118) 
0.82849

>  <synthesis_score>  (118) 
0.670444

>  <safety_proxy_score>  (118) 
1.0

>  <main_risk>  (118) 
veber_fail

>  <pose_score>  (118) 
0.5

>  <pose_decision>  (118) 
nan

>  <contacts_within_4A>  (118) 
nan

>  <hard_clashes_lt_1_8A>  (118) 
nan

>  <smiles>  (118) 
CCS(=O)(=O)NCC1(CC#N)Cc2c[nH]c(c2)N=CN=Nc2cnn1n2

>  <docking_score>  (118) 
nan

>  <diversity_cluster>  (118) 
scaffold_7c5442ba

>  <docking_score_scaled>  (118) 
0.0

>  <novelty_score>  (118) 
1.0

>  <final_weighted_score>  (118) 
0.491265

>  <rank>  (118) 
1605

>  <decision>  (118) 
await_docking

>  <diverse_rank>  (118) 
1029

>  <selection_tier>  (118) 
await_docking

$$$$
CAND_d80d2fbd1f
     RDKit          3D

 46 49  0  0  0  0  0  0  0  0999 V2000
    6.2800   -1.8560    3.1826 F   0  0  0  0  0  0  0  0  0  0  0  0
    5.1784   -1.2173    2.7756 C   0  0  0  0  0  0  0  0  0  0  0  0
    4.2482   -0.7363    3.6618 C   0  0  0  0  0  0  0  0  0  0  0  0
    3.1252   -0.0870    3.2817 N   0  0  0  0  0  0  0  0  0  0  0  0
    2.9404    0.0787    1.9510 C   0  0  0  0  0  0  0  0  0  0  0  0
    1.6655    0.8063    1.4935 C   0  0  2  0  0  0  0  0  0  0  0  0
    0.4796   -0.1631    1.5307 C   0  0  0  0  0  0  0  0  0  0  0  0
    0.4826   -1.2420    0.4566 C   0  0  0  0  0  0  0  0  0  0  0  0
   -0.7864   -1.8987    0.5357 O   0  0  0  0  0  0  0  0  0  0  0  0
   -0.9685   -2.8898   -0.4682 C   0  0  0  0  0  0  0  0  0  0  0  0
   -2.4616   -3.2119   -0.5714 C   0  0  0  0  0  0  0  0  0  0  0  0
   -3.2149   -2.3613   -1.6026 C   0  0  0  0  0  0  0  0  0  0  0  0
   -3.3226   -0.9152   -1.2674 C   0  0  0  0  0  0  0  0  0  0  0  0
   -2.4188    0.1181   -1.3704 C   0  0  0  0  0  0  0  0  0  0  0  0
   -3.1008    1.2798   -0.9403 C   0  0  0  0  0  0  0  0  0  0  0  0
   -4.3732    1.0040   -0.6446 N   0  0  0  0  0  0  0  0  0  0  0  0
   -4.4636   -0.3304   -0.7923 N   0  0  0  0  0  0  0  0  0  0  0  0
   -2.5738    2.5207   -0.9059 N   0  0  0  0  0  0  0  0  0  0  0  0
   -1.2178    2.8912   -0.8368 C   0  0  0  0  0  0  0  0  0  0  0  0
   -0.3235    2.0447   -0.2846 N   0  0  0  0  0  0  0  0  0  0  0  0
    0.9752    2.3511   -0.3157 C   0  0  0  0  0  0  0  0  0  0  0  0
    1.4572    3.4615   -0.8851 N   0  0  0  0  0  0  0  0  0  0  0  0
    0.5491    4.3173   -1.4008 C   0  0  0  0  0  0  0  0  0  0  0  0
   -0.8027    4.0818   -1.3959 C   0  0  0  0  0  0  0  0  0  0  0  0
   -1.6621    4.9548   -1.9381 F   0  0  0  0  0  0  0  0  0  0  0  0
    1.8887    1.4854    0.2147 N   0  0  0  0  0  0  0  0  0  0  0  0
    3.8076   -0.3622    1.0054 N   0  0  0  0  0  0  0  0  0  0  0  0
    4.9117   -1.0038    1.4471 C   0  0  0  0  0  0  0  0  0  0  0  0
    4.3817   -0.8624    4.7310 H   0  0  0  0  0  0  0  0  0  0  0  0
    1.4828    1.5837    2.2485 H   0  0  0  0  0  0  0  0  0  0  0  0
   -0.4650    0.3907    1.4788 H   0  0  0  0  0  0  0  0  0  0  0  0
    0.4337   -0.6575    2.5116 H   0  0  0  0  0  0  0  0  0  0  0  0
    1.2784   -1.9735    0.6313 H   0  0  0  0  0  0  0  0  0  0  0  0
    0.6054   -0.8077   -0.5403 H   0  0  0  0  0  0  0  0  0  0  0  0
   -0.4200   -3.7840   -0.1522 H   0  0  0  0  0  0  0  0  0  0  0  0
   -0.5684   -2.5622   -1.4345 H   0  0  0  0  0  0  0  0  0  0  0  0
   -2.9421   -3.1189    0.4101 H   0  0  0  0  0  0  0  0  0  0  0  0
   -2.5590   -4.2577   -0.8886 H   0  0  0  0  0  0  0  0  0  0  0  0
   -4.2239   -2.7778   -1.7192 H   0  0  0  0  0  0  0  0  0  0  0  0
   -2.7321   -2.4646   -2.5828 H   0  0  0  0  0  0  0  0  0  0  0  0
   -1.3978    0.0459   -1.7139 H   0  0  0  0  0  0  0  0  0  0  0  0
   -5.3492   -0.7748   -0.5769 H   0  0  0  0  0  0  0  0  0  0  0  0
   -3.2157    3.2851   -0.7435 H   0  0  0  0  0  0  0  0  0  0  0  0
    0.9523    5.2225   -1.8414 H   0  0  0  0  0  0  0  0  0  0  0  0
    2.8447    1.7437    0.0085 H   0  0  0  0  0  0  0  0  0  0  0  0
    5.5951   -1.3512    0.6797 H   0  0  0  0  0  0  0  0  0  0  0  0
  1  2  1  0
  2  3  2  0
  3  4  1  0
  4  5  2  0
  5  6  1  0
  6  7  1  0
  7  8  1  0
  8  9  1  0
  9 10  1  0
 10 11  1  0
 11 12  1  0
 12 13  1  0
 13 14  2  0
 14 15  1  0
 15 16  2  0
 16 17  1  0
 15 18  1  0
 18 19  1  0
 19 20  1  0
 20 21  2  0
 21 22  1  0
 22 23  2  0
 23 24  1  0
 24 25  1  0
 21 26  1  0
  5 27  1  0
 27 28  2  0
 28  2  1  0
 26  6  1  0
 17 13  1  0
 24 19  2  0
  3 29  1  0
  6 30  1  1
  7 31  1  0
  7 32  1  0
  8 33  1  0
  8 34  1  0
 10 35  1  0
 10 36  1  0
 11 37  1  0
 11 38  1  0
 12 39  1  0
 12 40  1  0
 14 41  1  0
 17 42  1  0
 18 43  1  0
 23 44  1  0
 26 45  1  0
 28 46  1  0
M  END
>  <candidate_id>  (119) 
CAND_d80d2fbd1f

>  <source_generator>  (119) 
macrocycle_linker

>  <parent_mol_id>  (119) 
JAK2_fc1e2398b3

>  <canonical_smiles>  (119) 
Fc1cnc([C@@H]2CCOCCCc3cc(n[nH]3)Nc3nc(ncc3F)N2)nc1

>  <inchikey>  (119) 
UQQHGLUUNJLOFQ-ZDUSSCGKSA-N

>  <valid_rdkit>  (119) 
True

>  <unique_flag>  (119) 
True

>  <novel_flag>  (119) 
True

>  <mw>  (119) 
388.382

>  <logp>  (119) 
2.5176

>  <tpsa>  (119) 
113.53

>  <hbd>  (119) 
3

>  <hba>  (119) 
8

>  <rotatable_bonds>  (119) 
1

>  <qed>  (119) 
0.5828

>  <sa_score>  (119) 
3.788

>  <murcko_scaffold>  (119) 
c1cnc([C@@H]2CCOCCCc3cc(n[nH]3)Nc3ccnc(n3)N2)nc1

>  <max_ring_size>  (119) 
15

>  <has_macrocycle_12_20>  (119) 
True

>  <has_constrained_ring_8_11>  (119) 
False

>  <passes_basic_filters>  (119) 
True

>  <generation_notes>  (119) 
macrocycle_bridge_oxa_path10_ring14

>  <best_score>  (119) 
nan

>  <qed_admet>  (119) 
0.5828

>  <sa_score_admet>  (119) 
3.788

>  <mw_admet>  (119) 
388.382

>  <logp_admet>  (119) 
2.5176

>  <tpsa_admet>  (119) 
113.53

>  <hbd_admet>  (119) 
3

>  <hba_admet>  (119) 
8

>  <rotatable_bonds_admet>  (119) 
1

>  <lipinski_violations>  (119) 
0

>  <veber_pass>  (119) 
True

>  <admet_score>  (119) 
0.81226

>  <synthesis_score>  (119) 
0.690222

>  <safety_proxy_score>  (119) 
1.0

>  <main_risk>  (119) 
no_major_descriptor_risk

>  <pose_score>  (119) 
0.5

>  <pose_decision>  (119) 
nan

>  <contacts_within_4A>  (119) 
nan

>  <hard_clashes_lt_1_8A>  (119) 
nan

>  <smiles>  (119) 
Fc1cnc([C@@H]2CCOCCCc3cc(n[nH]3)Nc3nc(ncc3F)N2)nc1

>  <docking_score>  (119) 
nan

>  <diversity_cluster>  (119) 
scaffold_bbad1912

>  <docking_score_scaled>  (119) 
0.0

>  <novelty_score>  (119) 
1.0

>  <final_weighted_score>  (119) 
0.490985

>  <rank>  (119) 
1625

>  <decision>  (119) 
await_docking

>  <diverse_rank>  (119) 
1041

>  <selection_tier>  (119) 
await_docking

$$$$
CAND_938ef2420e
     RDKit          3D

 47 50  0  0  0  0  0  0  0  0999 V2000
    3.3915   -0.3256    2.1579 C   0  0  0  0  0  0  0  0  0  0  0  0
    2.2854   -0.4343    1.1031 C   0  0  2  0  0  0  0  0  0  0  0  0
    2.6948   -1.4248    0.1116 N   0  0  0  0  0  0  0  0  0  0  0  0
    1.8106   -2.3664   -0.3889 C   0  0  0  0  0  0  0  0  0  0  0  0
    0.4960   -2.2624   -0.0614 N   0  0  0  0  0  0  0  0  0  0  0  0
   -0.3558   -3.2496   -0.4420 C   0  0  0  0  0  0  0  0  0  0  0  0
    0.1226   -4.3278   -1.1847 C   0  0  0  0  0  0  0  0  0  0  0  0
    1.4152   -4.4683   -1.5570 N   0  0  0  0  0  0  0  0  0  0  0  0
    2.2445   -3.4730   -1.1377 C   0  0  0  0  0  0  0  0  0  0  0  0
    3.6228   -3.6362   -1.5007 C   0  0  0  0  0  0  0  0  0  0  0  0
    4.7434   -3.7389   -1.7939 N   0  0  0  0  0  0  0  0  0  0  0  0
   -1.7187   -3.1958   -0.1038 N   0  0  0  0  0  0  0  0  0  0  0  0
   -2.4810   -2.1166    0.1518 C   0  0  0  0  0  0  0  0  0  0  0  0
   -2.2932   -0.8333   -0.4051 C   0  0  0  0  0  0  0  0  0  0  0  0
   -3.2554   -0.0326    0.1696 C   0  0  0  0  0  0  0  0  0  0  0  0
   -3.9915   -0.8765    0.9553 N   0  0  0  0  0  0  0  0  0  0  0  0
   -3.5627   -2.1496    0.9313 N   0  0  0  0  0  0  0  0  0  0  0  0
   -3.5447    1.4231    0.0467 C   0  0  0  0  0  0  0  0  0  0  0  0
   -2.5441    2.2823    0.8378 C   0  0  0  0  0  0  0  0  0  0  0  0
   -1.8362    3.3477   -0.0125 C   0  0  0  0  0  0  0  0  0  0  0  0
   -0.9033    2.8102   -1.1050 C   0  0  0  0  0  0  0  0  0  0  0  0
    0.4803    2.4447   -0.6327 C   0  0  0  0  0  0  0  0  0  0  0  0
    0.7295    1.2514    0.0529 C   0  0  0  0  0  0  0  0  0  0  0  0
    2.0337    0.9077    0.4198 C   0  0  0  0  0  0  0  0  0  0  0  0
    3.0988    1.6974    0.1185 N   0  0  0  0  0  0  0  0  0  0  0  0
    2.8386    2.8620   -0.5221 C   0  0  0  0  0  0  0  0  0  0  0  0
    1.5708    3.2662   -0.9057 C   0  0  0  0  0  0  0  0  0  0  0  0
    1.4092    4.4301   -1.5497 F   0  0  0  0  0  0  0  0  0  0  0  0
    3.5218   -1.2823    2.6763 H   0  0  0  0  0  0  0  0  0  0  0  0
    4.3589   -0.0635    1.7136 H   0  0  0  0  0  0  0  0  0  0  0  0
    3.1469    0.4356    2.9069 H   0  0  0  0  0  0  0  0  0  0  0  0
    1.3811   -0.7419    1.6437 H   0  0  0  0  0  0  0  0  0  0  0  0
    3.4924   -1.1520   -0.4543 H   0  0  0  0  0  0  0  0  0  0  0  0
   -0.5416   -5.1201   -1.5154 H   0  0  0  0  0  0  0  0  0  0  0  0
   -2.0776   -4.0724    0.2525 H   0  0  0  0  0  0  0  0  0  0  0  0
   -1.5344   -0.5352   -1.1135 H   0  0  0  0  0  0  0  0  0  0  0  0
   -4.7990   -0.6544    1.5283 H   0  0  0  0  0  0  0  0  0  0  0  0
   -3.5598    1.6963   -1.0146 H   0  0  0  0  0  0  0  0  0  0  0  0
   -4.5569    1.6255    0.4204 H   0  0  0  0  0  0  0  0  0  0  0  0
   -1.8064    1.6733    1.3706 H   0  0  0  0  0  0  0  0  0  0  0  0
   -3.1044    2.8120    1.6200 H   0  0  0  0  0  0  0  0  0  0  0  0
   -1.2812    4.0219    0.6518 H   0  0  0  0  0  0  0  0  0  0  0  0
   -2.6113    3.9584   -0.4937 H   0  0  0  0  0  0  0  0  0  0  0  0
   -1.3429    1.9512   -1.6234 H   0  0  0  0  0  0  0  0  0  0  0  0
   -0.8122    3.5859   -1.8768 H   0  0  0  0  0  0  0  0  0  0  0  0
   -0.0761    0.5676    0.2914 H   0  0  0  0  0  0  0  0  0  0  0  0
    3.7018    3.4833   -0.7368 H   0  0  0  0  0  0  0  0  0  0  0  0
  1  2  1  0
  2  3  1  0
  3  4  1  0
  4  5  1  0
  5  6  2  0
  6  7  1  0
  7  8  2  0
  8  9  1  0
  9 10  1  0
 10 11  3  0
  6 12  1  0
 12 13  1  0
 13 14  1  0
 14 15  2  0
 15 16  1  0
 16 17  1  0
 15 18  1  0
 18 19  1  0
 19 20  1  0
 20 21  1  0
 21 22  1  0
 22 23  1  0
 23 24  2  0
 24 25  1  0
 25 26  2  0
 26 27  1  0
 27 28  1  0
 24  2  1  0
  9  4  2  0
 17 13  2  0
 27 22  2  0
  1 29  1  0
  1 30  1  0
  1 31  1  0
  2 32  1  1
  3 33  1  0
  7 34  1  0
 12 35  1  0
 14 36  1  0
 16 37  1  0
 18 38  1  0
 18 39  1  0
 19 40  1  0
 19 41  1  0
 20 42  1  0
 20 43  1  0
 21 44  1  0
 21 45  1  0
 23 46  1  0
 26 47  1  0
M  END
>  <candidate_id>  (120) 
CAND_938ef2420e

>  <source_generator>  (120) 
macrocycle_linker

>  <parent_mol_id>  (120) 
JAK2_c57d118ac8

>  <canonical_smiles>  (120) 
C[C@@H]1Nc2nc(cnc2C#N)Nc2cc([nH]n2)CCCCc2cc1ncc2F

>  <inchikey>  (120) 
ITGZTPXWMJWAPD-NSHDSACASA-N

>  <valid_rdkit>  (120) 
True

>  <unique_flag>  (120) 
True

>  <novel_flag>  (120) 
True

>  <mw>  (120) 
378.415

>  <logp>  (120) 
3.401

>  <tpsa>  (120) 
115.2

>  <hbd>  (120) 
3

>  <hba>  (120) 
7

>  <rotatable_bonds>  (120) 
0

>  <qed>  (120) 
0.5489

>  <sa_score>  (120) 
3.608

>  <murcko_scaffold>  (120) 
c1cc2cc(n1)CNc1cncc(n1)Nc1cc([nH]n1)CCCC2

>  <max_ring_size>  (120) 
16

>  <has_macrocycle_12_20>  (120) 
True

>  <has_constrained_ring_8_11>  (120) 
False

>  <passes_basic_filters>  (120) 
True

>  <generation_notes>  (120) 
macrocycle_bridge_oxa_aza_path12_ring15

>  <best_score>  (120) 
nan

>  <qed_admet>  (120) 
0.5489

>  <sa_score_admet>  (120) 
3.608

>  <mw_admet>  (120) 
378.415

>  <logp_admet>  (120) 
3.401

>  <tpsa_admet>  (120) 
115.2

>  <hbd_admet>  (120) 
3

>  <hba_admet>  (120) 
7

>  <rotatable_bonds_admet>  (120) 
0

>  <lipinski_violations>  (120) 
0

>  <veber_pass>  (120) 
True

>  <admet_score>  (120) 
0.797005

>  <synthesis_score>  (120) 
0.710222

>  <safety_proxy_score>  (120) 
1.0

>  <main_risk>  (120) 
no_major_descriptor_risk

>  <pose_score>  (120) 
0.5

>  <pose_decision>  (120) 
nan

>  <contacts_within_4A>  (120) 
nan

>  <hard_clashes_lt_1_8A>  (120) 
nan

>  <smiles>  (120) 
C[C@@H]1Nc2nc(cnc2C#N)Nc2cc([nH]n2)CCCCc2cc1ncc2F

>  <docking_score>  (120) 
nan

>  <diversity_cluster>  (120) 
scaffold_de67e8f0

>  <docking_score_scaled>  (120) 
0.0

>  <novelty_score>  (120) 
1.0

>  <final_weighted_score>  (120) 
0.490934

>  <rank>  (120) 
1627

>  <decision>  (120) 
await_docking

>  <diverse_rank>  (120) 
1042

>  <selection_tier>  (120) 
await_docking

$$$$
CAND_75476d0578
     RDKit          3D

 52 56  0  0  0  0  0  0  0  0999 V2000
   -3.2100   -4.7609    0.5802 N   0  0  0  0  0  0  0  0  0  0  0  0
   -2.8973   -3.8600    1.2420 C   0  0  0  0  0  0  0  0  0  0  0  0
   -2.6004   -2.7341    2.1349 C   0  0  0  0  0  0  0  0  0  0  0  0
   -1.8797   -1.5347    1.5004 C   0  0  2  0  0  0  0  0  0  0  0  0
   -2.6469   -0.7881    0.3649 C   0  0  0  0  0  0  0  0  0  0  0  0
   -2.9607   -1.6064   -0.8990 C   0  0  0  0  0  0  0  0  0  0  0  0
   -3.0971   -0.6045   -2.0456 C   0  0  0  0  0  0  0  0  0  0  0  0
   -2.8567    0.7700   -1.4404 C   0  0  0  0  0  0  0  0  0  0  0  0
   -1.9812    0.4967   -0.2142 C   0  0  0  0  0  0  0  0  0  0  0  0
   -1.9190    1.6877    0.7581 C   0  0  0  0  0  0  0  0  0  0  0  0
   -1.4675    3.0145    0.1271 C   0  0  0  0  0  0  0  0  0  0  0  0
   -0.1684    2.9339   -0.4603 O   0  0  0  0  0  0  0  0  0  0  0  0
    0.8699    3.4311    0.3955 C   0  0  0  0  0  0  0  0  0  0  0  0
    2.2438    3.3384   -0.2869 C   0  0  0  0  0  0  0  0  0  0  0  0
    2.8250    1.9473   -0.3416 C   0  0  0  0  0  0  0  0  0  0  0  0
    2.1147    0.9709    0.2377 N   0  0  0  0  0  0  0  0  0  0  0  0
    2.5040   -0.3179    0.1029 C   0  0  0  0  0  0  0  0  0  0  0  0
    3.6892   -0.6139   -0.5567 C   0  0  0  0  0  0  0  0  0  0  0  0
    4.4509   -1.7611   -0.9122 C   0  0  0  0  0  0  0  0  0  0  0  0
    5.5691   -1.3249   -1.5932 C   0  0  0  0  0  0  0  0  0  0  0  0
    5.5077    0.0438   -1.6691 N   0  0  0  0  0  0  0  0  0  0  0  0
    4.3707    0.4907   -1.0527 C   0  0  0  0  0  0  0  0  0  0  0  0
    3.9969    1.7807   -0.9861 N   0  0  0  0  0  0  0  0  0  0  0  0
    1.5252   -1.2842    0.5253 C   0  0  0  0  0  0  0  0  0  0  0  0
    1.0934   -2.5120   -0.0151 C   0  0  0  0  0  0  0  0  0  0  0  0
   -0.1096   -2.8730    0.4538 N   0  0  0  0  0  0  0  0  0  0  0  0
   -0.4827   -1.8137    1.1913 N   0  0  0  0  0  0  0  0  0  0  0  0
    0.5464   -0.9585    1.4424 C   0  0  0  0  0  0  0  0  0  0  0  0
   -3.5466   -2.3809    2.5646 H   0  0  0  0  0  0  0  0  0  0  0  0
   -2.0055   -3.1073    2.9788 H   0  0  0  0  0  0  0  0  0  0  0  0
   -1.8185   -0.8048    2.3227 H   0  0  0  0  0  0  0  0  0  0  0  0
   -3.6151   -0.4885    0.7951 H   0  0  0  0  0  0  0  0  0  0  0  0
   -2.1672   -2.3183   -1.1436 H   0  0  0  0  0  0  0  0  0  0  0  0
   -3.8906   -2.1720   -0.7798 H   0  0  0  0  0  0  0  0  0  0  0  0
   -2.3445   -0.8182   -2.8135 H   0  0  0  0  0  0  0  0  0  0  0  0
   -4.0792   -0.6635   -2.5255 H   0  0  0  0  0  0  0  0  0  0  0  0
   -3.8125    1.2187   -1.1431 H   0  0  0  0  0  0  0  0  0  0  0  0
   -2.3773    1.4412   -2.1597 H   0  0  0  0  0  0  0  0  0  0  0  0
   -0.9691    0.2703   -0.5701 H   0  0  0  0  0  0  0  0  0  0  0  0
   -2.9079    1.8423    1.2070 H   0  0  0  0  0  0  0  0  0  0  0  0
   -1.2371    1.4427    1.5778 H   0  0  0  0  0  0  0  0  0  0  0  0
   -2.1631    3.3019   -0.6678 H   0  0  0  0  0  0  0  0  0  0  0  0
   -1.5077    3.8157    0.8753 H   0  0  0  0  0  0  0  0  0  0  0  0
    0.8543    2.8995    1.3541 H   0  0  0  0  0  0  0  0  0  0  0  0
    0.6618    4.4901    0.5910 H   0  0  0  0  0  0  0  0  0  0  0  0
    2.9544    3.9689    0.2599 H   0  0  0  0  0  0  0  0  0  0  0  0
    2.1690    3.7150   -1.3136 H   0  0  0  0  0  0  0  0  0  0  0  0
    4.2166   -2.7938   -0.6882 H   0  0  0  0  0  0  0  0  0  0  0  0
    6.3977   -1.8669   -2.0302 H   0  0  0  0  0  0  0  0  0  0  0  0
    6.1772    0.6511   -2.1194 H   0  0  0  0  0  0  0  0  0  0  0  0
    1.5551   -3.1219   -0.7804 H   0  0  0  0  0  0  0  0  0  0  0  0
    0.4257   -0.0790    2.0592 H   0  0  0  0  0  0  0  0  0  0  0  0
  1  2  3  0
  2  3  1  0
  3  4  1  0
  4  5  1  0
  5  6  1  0
  6  7  1  0
  7  8  1  0
  8  9  1  0
  9 10  1  0
 10 11  1  0
 11 12  1  0
 12 13  1  0
 13 14  1  0
 14 15  1  0
 15 16  1  0
 16 17  2  0
 17 18  1  0
 18 19  1  0
 19 20  2  0
 20 21  1  0
 21 22  1  0
 22 23  1  0
 17 24  1  0
 24 25  1  0
 25 26  2  0
 26 27  1  0
 27 28  1  0
 27  4  1  0
  9  5  1  0
 23 15  2  0
 28 24  2  0
 22 18  2  0
  3 29  1  0
  3 30  1  0
  4 31  1  1
  5 32  1  0
  6 33  1  0
  6 34  1  0
  7 35  1  0
  7 36  1  0
  8 37  1  0
  8 38  1  0
  9 39  1  0
 10 40  1  0
 10 41  1  0
 11 42  1  0
 11 43  1  0
 13 44  1  0
 13 45  1  0
 14 46  1  0
 14 47  1  0
 19 48  1  0
 20 49  1  0
 21 50  1  0
 25 51  1  0
 28 52  1  0
M  END
>  <candidate_id>  (121) 
CAND_75476d0578

>  <source_generator>  (121) 
macrocycle_linker

>  <parent_mol_id>  (121) 
JAK2_0363b39a60

>  <canonical_smiles>  (121) 
N#CC[C@@H]1C2CCCC2CCOCCc2nc(c3cc[nH]c3n2)-c2cnn1c2

>  <inchikey>  (121) 
QYDGGBDUYYADAE-JFUPDXTOSA-N

>  <valid_rdkit>  (121) 
True

>  <unique_flag>  (121) 
True

>  <novel_flag>  (121) 
True

>  <mw>  (121) 
376.464

>  <logp>  (121) 
3.6553

>  <tpsa>  (121) 
92.41

>  <hbd>  (121) 
1

>  <hba>  (121) 
5

>  <rotatable_bonds>  (121) 
1

>  <qed>  (121) 
0.6996

>  <sa_score>  (121) 
4.422

>  <murcko_scaffold>  (121) 
c1cc2c3nc(nc2[nH]1)CCOCCC1CCCC1Cn1cc-3cn1

>  <max_ring_size>  (121) 
14

>  <has_macrocycle_12_20>  (121) 
True

>  <has_constrained_ring_8_11>  (121) 
False

>  <passes_basic_filters>  (121) 
True

>  <generation_notes>  (121) 
macrocycle_bridge_oxa_path8_ring13

>  <best_score>  (121) 
nan

>  <qed_admet>  (121) 
0.6996

>  <sa_score_admet>  (121) 
4.422

>  <mw_admet>  (121) 
376.464

>  <logp_admet>  (121) 
3.6553

>  <tpsa_admet>  (121) 
92.41

>  <hbd_admet>  (121) 
1

>  <hba_admet>  (121) 
5

>  <rotatable_bonds_admet>  (121) 
1

>  <lipinski_violations>  (121) 
0

>  <veber_pass>  (121) 
True

>  <admet_score>  (121) 
0.86482

>  <synthesis_score>  (121) 
0.619778

>  <safety_proxy_score>  (121) 
1.0

>  <main_risk>  (121) 
no_major_descriptor_risk

>  <pose_score>  (121) 
0.5

>  <pose_decision>  (121) 
nan

>  <contacts_within_4A>  (121) 
nan

>  <hard_clashes_lt_1_8A>  (121) 
nan

>  <smiles>  (121) 
N#CC[C@@H]1C2CCCC2CCOCCc2nc(c3cc[nH]c3n2)-c2cnn1c2

>  <docking_score>  (121) 
nan

>  <diversity_cluster>  (121) 
scaffold_367ff175

>  <docking_score_scaled>  (121) 
0.0

>  <novelty_score>  (121) 
1.0

>  <final_weighted_score>  (121) 
0.490931

>  <rank>  (121) 
1628

>  <decision>  (121) 
await_docking

>  <diverse_rank>  (121) 
1043

>  <selection_tier>  (121) 
await_docking

$$$$
CAND_2d63f0994e
     RDKit          3D

 45 48  0  0  0  0  0  0  0  0999 V2000
    3.4405   -0.8332    1.9444 C   0  0  0  0  0  0  0  0  0  0  0  0
    2.1563   -0.9484    1.1192 C   0  0  2  0  0  0  0  0  0  0  0  0
    2.2357   -2.1698    0.3200 N   0  0  0  0  0  0  0  0  0  0  0  0
    1.0737   -2.8358   -0.0481 C   0  0  0  0  0  0  0  0  0  0  0  0
   -0.1206   -2.2503    0.2231 N   0  0  0  0  0  0  0  0  0  0  0  0
   -1.2609   -2.9181   -0.0759 C   0  0  0  0  0  0  0  0  0  0  0  0
   -1.1867   -4.1872   -0.6495 C   0  0  0  0  0  0  0  0  0  0  0  0
   -0.0245   -4.8162   -0.9402 N   0  0  0  0  0  0  0  0  0  0  0  0
    1.0992   -4.1131   -0.6290 C   0  0  0  0  0  0  0  0  0  0  0  0
    2.3363   -4.7775   -0.9231 C   0  0  0  0  0  0  0  0  0  0  0  0
    3.3474   -5.2977   -1.1677 N   0  0  0  0  0  0  0  0  0  0  0  0
   -2.5160   -2.3280    0.1316 N   0  0  0  0  0  0  0  0  0  0  0  0
   -2.8690   -1.0289    0.1226 C   0  0  0  0  0  0  0  0  0  0  0  0
   -2.1145    0.0372   -0.4174 C   0  0  0  0  0  0  0  0  0  0  0  0
   -2.8958    1.1619   -0.2646 C   0  0  0  0  0  0  0  0  0  0  0  0
   -4.0316    0.7215    0.3552 N   0  0  0  0  0  0  0  0  0  0  0  0
   -4.0520   -0.6030    0.5710 N   0  0  0  0  0  0  0  0  0  0  0  0
   -2.6836    2.5823   -0.6670 C   0  0  0  0  0  0  0  0  0  0  0  0
   -2.2334    3.4766    0.4945 C   0  0  0  0  0  0  0  0  0  0  0  0
   -0.9252    3.1665    0.9733 O   0  0  0  0  0  0  0  0  0  0  0  0
    0.1328    3.5906    0.1115 C   0  0  0  0  0  0  0  0  0  0  0  0
    1.0289    2.4354   -0.2386 C   0  0  0  0  0  0  0  0  0  0  0  0
    1.1529    1.3089    0.5840 C   0  0  0  0  0  0  0  0  0  0  0  0
    2.0206    0.2760    0.2193 C   0  0  0  0  0  0  0  0  0  0  0  0
    2.7872    0.3294   -0.9078 N   0  0  0  0  0  0  0  0  0  0  0  0
    2.6602    1.4328   -1.6812 C   0  0  0  0  0  0  0  0  0  0  0  0
    1.8131    2.4878   -1.3865 C   0  0  0  0  0  0  0  0  0  0  0  0
    1.7558    3.5492   -2.2026 F   0  0  0  0  0  0  0  0  0  0  0  0
    3.5535   -1.6999    2.6053 H   0  0  0  0  0  0  0  0  0  0  0  0
    4.3312   -0.7880    1.3065 H   0  0  0  0  0  0  0  0  0  0  0  0
    3.4296    0.0683    2.5670 H   0  0  0  0  0  0  0  0  0  0  0  0
    1.3181   -0.9998    1.8259 H   0  0  0  0  0  0  0  0  0  0  0  0
    2.9788   -2.1469   -0.3742 H   0  0  0  0  0  0  0  0  0  0  0  0
   -2.0851   -4.7353   -0.9155 H   0  0  0  0  0  0  0  0  0  0  0  0
   -3.2167   -2.9638    0.4883 H   0  0  0  0  0  0  0  0  0  0  0  0
   -1.1397   -0.0143   -0.8806 H   0  0  0  0  0  0  0  0  0  0  0  0
   -4.8421    1.2620    0.6382 H   0  0  0  0  0  0  0  0  0  0  0  0
   -3.6222    2.9782   -1.0740 H   0  0  0  0  0  0  0  0  0  0  0  0
   -1.9493    2.6110   -1.4799 H   0  0  0  0  0  0  0  0  0  0  0  0
   -2.9185    3.3600    1.3419 H   0  0  0  0  0  0  0  0  0  0  0  0
   -2.2694    4.5326    0.2005 H   0  0  0  0  0  0  0  0  0  0  0  0
   -0.2560    4.0649   -0.7972 H   0  0  0  0  0  0  0  0  0  0  0  0
    0.7203    4.3378    0.6562 H   0  0  0  0  0  0  0  0  0  0  0  0
    0.5628    1.2286    1.4943 H   0  0  0  0  0  0  0  0  0  0  0  0
    3.2779    1.4554   -2.5730 H   0  0  0  0  0  0  0  0  0  0  0  0
  1  2  1  0
  2  3  1  0
  3  4  1  0
  4  5  1  0
  5  6  2  0
  6  7  1  0
  7  8  2  0
  8  9  1  0
  9 10  1  0
 10 11  3  0
  6 12  1  0
 12 13  1  0
 13 14  1  0
 14 15  2  0
 15 16  1  0
 16 17  1  0
 15 18  1  0
 18 19  1  0
 19 20  1  0
 20 21  1  0
 21 22  1  0
 22 23  1  0
 23 24  2  0
 24 25  1  0
 25 26  2  0
 26 27  1  0
 27 28  1  0
 24  2  1  0
  9  4  2  0
 17 13  2  0
 27 22  2  0
  1 29  1  0
  1 30  1  0
  1 31  1  0
  2 32  1  1
  3 33  1  0
  7 34  1  0
 12 35  1  0
 14 36  1  0
 16 37  1  0
 18 38  1  0
 18 39  1  0
 19 40  1  0
 19 41  1  0
 21 42  1  0
 21 43  1  0
 23 44  1  0
 26 45  1  0
M  END
>  <candidate_id>  (122) 
CAND_2d63f0994e

>  <source_generator>  (122) 
macrocycle_linker

>  <parent_mol_id>  (122) 
JAK2_c57d118ac8

>  <canonical_smiles>  (122) 
C[C@@H]1Nc2nc(cnc2C#N)Nc2cc([nH]n2)CCOCc2cc1ncc2F

>  <inchikey>  (122) 
XJRNOUPVSAZAAB-JTQLQIEISA-N

>  <valid_rdkit>  (122) 
True

>  <unique_flag>  (122) 
True

>  <novel_flag>  (122) 
True

>  <mw>  (122) 
380.387

>  <logp>  (122) 
2.5949

>  <tpsa>  (122) 
124.43

>  <hbd>  (122) 
3

>  <hba>  (122) 
8

>  <rotatable_bonds>  (122) 
0

>  <qed>  (122) 
0.5435

>  <sa_score>  (122) 
3.619

>  <murcko_scaffold>  (122) 
c1cc2cc(n1)CNc1cncc(n1)Nc1cc([nH]n1)CCOC2

>  <max_ring_size>  (122) 
16

>  <has_macrocycle_12_20>  (122) 
True

>  <has_constrained_ring_8_11>  (122) 
False

>  <passes_basic_filters>  (122) 
True

>  <generation_notes>  (122) 
macrocycle_bridge_oxa_path12_ring15

>  <best_score>  (122) 
nan

>  <qed_admet>  (122) 
0.5435

>  <sa_score_admet>  (122) 
3.619

>  <mw_admet>  (122) 
380.387

>  <logp_admet>  (122) 
2.5949

>  <tpsa_admet>  (122) 
124.43

>  <hbd_admet>  (122) 
3

>  <hba_admet>  (122) 
8

>  <rotatable_bonds_admet>  (122) 
0

>  <lipinski_violations>  (122) 
0

>  <veber_pass>  (122) 
True

>  <admet_score>  (122) 
0.794575

>  <synthesis_score>  (122) 
0.709

>  <safety_proxy_score>  (122) 
1.0

>  <main_risk>  (122) 
no_major_descriptor_risk

>  <pose_score>  (122) 
0.5

>  <pose_decision>  (122) 
nan

>  <contacts_within_4A>  (122) 
nan

>  <hard_clashes_lt_1_8A>  (122) 
nan

>  <smiles>  (122) 
C[C@@H]1Nc2nc(cnc2C#N)Nc2cc([nH]n2)CCOCc2cc1ncc2F

>  <docking_score>  (122) 
nan

>  <diversity_cluster>  (122) 
scaffold_f4baf2e8

>  <docking_score_scaled>  (122) 
0.0

>  <novelty_score>  (122) 
1.0

>  <final_weighted_score>  (122) 
0.490265

>  <rank>  (122) 
1667

>  <decision>  (122) 
await_docking

>  <diverse_rank>  (122) 
1065

>  <selection_tier>  (122) 
await_docking

$$$$
CAND_db02ab413a
     RDKit          3D

 50 53  0  0  0  0  0  0  0  0999 V2000
    2.2606   -1.9091    2.2780 C   0  0  0  0  0  0  0  0  0  0  0  0
    1.7615   -1.1801    1.0276 C   0  0  2  0  0  0  0  0  0  0  0  0
    2.0537   -2.0081   -0.1482 N   0  0  0  0  0  0  0  0  0  0  0  0
    1.0784   -2.8920   -0.5874 C   0  0  0  0  0  0  0  0  0  0  0  0
    1.3556   -3.8668   -1.5422 C   0  0  0  0  0  0  0  0  0  0  0  0
    0.4383   -4.7569   -1.9979 N   0  0  0  0  0  0  0  0  0  0  0  0
   -0.7981   -4.6205   -1.4590 C   0  0  0  0  0  0  0  0  0  0  0  0
   -1.1165   -3.6605   -0.5026 C   0  0  0  0  0  0  0  0  0  0  0  0
   -0.1577   -2.8171   -0.0622 N   0  0  0  0  0  0  0  0  0  0  0  0
   -2.4323   -3.5042   -0.0434 N   0  0  0  0  0  0  0  0  0  0  0  0
   -2.9954   -2.3916    0.4749 C   0  0  0  0  0  0  0  0  0  0  0  0
   -2.5640   -1.0627    0.2305 C   0  0  0  0  0  0  0  0  0  0  0  0
   -3.4069   -0.2550    0.9563 C   0  0  0  0  0  0  0  0  0  0  0  0
   -4.2617   -1.1186    1.5821 N   0  0  0  0  0  0  0  0  0  0  0  0
   -4.0762   -2.4129    1.2590 N   0  0  0  0  0  0  0  0  0  0  0  0
   -3.5195    1.0590    1.1521 O   0  0  0  0  0  0  0  0  0  0  0  0
   -3.0582    1.8979    0.0886 C   0  0  0  0  0  0  0  0  0  0  0  0
   -1.6091    2.3518    0.2917 C   0  0  0  0  0  0  0  0  0  0  0  0
   -1.2436    3.4322   -0.7285 C   0  0  0  0  0  0  0  0  0  0  0  0
    0.1857    3.9765   -0.6107 C   0  0  0  0  0  0  0  0  0  0  0  0
    1.2564    3.0947   -1.2670 C   0  0  0  0  0  0  0  0  0  0  0  0
    2.0457    2.2730   -0.2849 C   0  0  0  0  0  0  0  0  0  0  0  0
    1.6522    0.9903   -0.0914 N   0  0  0  0  0  0  0  0  0  0  0  0
    2.3228    0.2261    0.8187 C   0  0  0  0  0  0  0  0  0  0  0  0
    3.4307    0.7196    1.5077 C   0  0  0  0  0  0  0  0  0  0  0  0
    3.8337    2.0360    1.2896 C   0  0  0  0  0  0  0  0  0  0  0  0
    3.1266    2.8208    0.3926 C   0  0  0  0  0  0  0  0  0  0  0  0
    3.4982    4.0918    0.1881 F   0  0  0  0  0  0  0  0  0  0  0  0
    2.0904   -1.3116    3.1802 H   0  0  0  0  0  0  0  0  0  0  0  0
    3.3303   -2.1391    2.2143 H   0  0  0  0  0  0  0  0  0  0  0  0
    1.7345   -2.8618    2.4067 H   0  0  0  0  0  0  0  0  0  0  0  0
    0.6837   -1.0169    1.1588 H   0  0  0  0  0  0  0  0  0  0  0  0
    2.5859   -1.5568   -0.8825 H   0  0  0  0  0  0  0  0  0  0  0  0
    2.3479   -3.9642   -1.9684 H   0  0  0  0  0  0  0  0  0  0  0  0
   -1.5477   -5.3029   -1.8437 H   0  0  0  0  0  0  0  0  0  0  0  0
   -2.9111   -4.3746    0.1415 H   0  0  0  0  0  0  0  0  0  0  0  0
   -1.7332   -0.7467   -0.3828 H   0  0  0  0  0  0  0  0  0  0  0  0
   -5.0135   -0.8760    2.2153 H   0  0  0  0  0  0  0  0  0  0  0  0
   -3.1960    1.4219   -0.8913 H   0  0  0  0  0  0  0  0  0  0  0  0
   -3.7131    2.7773    0.0967 H   0  0  0  0  0  0  0  0  0  0  0  0
   -1.4828    2.7338    1.3117 H   0  0  0  0  0  0  0  0  0  0  0  0
   -0.9414    1.4914    0.2015 H   0  0  0  0  0  0  0  0  0  0  0  0
   -1.4183    3.0624   -1.7463 H   0  0  0  0  0  0  0  0  0  0  0  0
   -1.9310    4.2768   -0.5876 H   0  0  0  0  0  0  0  0  0  0  0  0
    0.4239    4.2058    0.4347 H   0  0  0  0  0  0  0  0  0  0  0  0
    0.1941    4.9364   -1.1447 H   0  0  0  0  0  0  0  0  0  0  0  0
    0.8116    2.4337   -2.0207 H   0  0  0  0  0  0  0  0  0  0  0  0
    1.9604    3.7343   -1.8154 H   0  0  0  0  0  0  0  0  0  0  0  0
    3.9797    0.1101    2.2172 H   0  0  0  0  0  0  0  0  0  0  0  0
    4.6848    2.4532    1.8176 H   0  0  0  0  0  0  0  0  0  0  0  0
  1  2  1  0
  2  3  1  0
  3  4  1  0
  4  5  1  0
  5  6  2  0
  6  7  1  0
  7  8  2  0
  8  9  1  0
  8 10  1  0
 10 11  1  0
 11 12  1  0
 12 13  2  0
 13 14  1  0
 14 15  1  0
 13 16  1  0
 16 17  1  0
 17 18  1  0
 18 19  1  0
 19 20  1  0
 20 21  1  0
 21 22  1  0
 22 23  1  0
 23 24  2  0
 24 25  1  0
 25 26  2  0
 26 27  1  0
 27 28  1  0
 24  2  1  0
  9  4  2  0
 15 11  2  0
 27 22  2  0
  1 29  1  0
  1 30  1  0
  1 31  1  0
  2 32  1  1
  3 33  1  0
  5 34  1  0
  7 35  1  0
 10 36  1  0
 12 37  1  0
 14 38  1  0
 17 39  1  0
 17 40  1  0
 18 41  1  0
 18 42  1  0
 19 43  1  0
 19 44  1  0
 20 45  1  0
 20 46  1  0
 21 47  1  0
 21 48  1  0
 25 49  1  0
 26 50  1  0
M  END
>  <candidate_id>  (123) 
CAND_db02ab413a

>  <source_generator>  (123) 
macrocycle_linker

>  <parent_mol_id>  (123) 
JAK2_5244fcd33d

>  <canonical_smiles>  (123) 
C[C@@H]1Nc2cncc(n2)Nc2cc([nH]n2)OCCCCCc2nc1ccc2F

>  <inchikey>  (123) 
PNLBLBKSMVYODW-LBPRGKRZSA-N

>  <valid_rdkit>  (123) 
True

>  <unique_flag>  (123) 
True

>  <novel_flag>  (123) 
True

>  <mw>  (123) 
383.431

>  <logp>  (123) 
3.7557

>  <tpsa>  (123) 
100.64

>  <hbd>  (123) 
3

>  <hba>  (123) 
7

>  <rotatable_bonds>  (123) 
0

>  <qed>  (123) 
0.5433

>  <sa_score>  (123) 
3.636

>  <murcko_scaffold>  (123) 
c1cc2nc(c1)CNc1cncc(n1)Nc1cc([nH]n1)OCCCCC2

>  <max_ring_size>  (123) 
18

>  <has_macrocycle_12_20>  (123) 
True

>  <has_constrained_ring_8_11>  (123) 
False

>  <passes_basic_filters>  (123) 
True

>  <generation_notes>  (123) 
macrocycle_bridge_oxa_aza_path13_ring17

>  <best_score>  (123) 
nan

>  <qed_admet>  (123) 
0.5433

>  <sa_score_admet>  (123) 
3.636

>  <mw_admet>  (123) 
383.431

>  <logp_admet>  (123) 
3.7557

>  <tpsa_admet>  (123) 
100.64

>  <hbd_admet>  (123) 
3

>  <hba_admet>  (123) 
7

>  <rotatable_bonds_admet>  (123) 
0

>  <lipinski_violations>  (123) 
0

>  <veber_pass>  (123) 
True

>  <admet_score>  (123) 
0.794485

>  <synthesis_score>  (123) 
0.707111

>  <safety_proxy_score>  (123) 
1.0

>  <main_risk>  (123) 
no_major_descriptor_risk

>  <pose_score>  (123) 
0.5

>  <pose_decision>  (123) 
nan

>  <contacts_within_4A>  (123) 
nan

>  <hard_clashes_lt_1_8A>  (123) 
nan

>  <smiles>  (123) 
C[C@@H]1Nc2cncc(n2)Nc2cc([nH]n2)OCCCCCc2nc1ccc2F

>  <docking_score>  (123) 
nan

>  <diversity_cluster>  (123) 
scaffold_17405271

>  <docking_score_scaled>  (123) 
0.0

>  <novelty_score>  (123) 
1.0

>  <final_weighted_score>  (123) 
0.489964

>  <rank>  (123) 
1677

>  <decision>  (123) 
await_docking

>  <diverse_rank>  (123) 
1072

>  <selection_tier>  (123) 
await_docking

$$$$
CAND_5aa3611fa3
     RDKit          3D

 46 49  0  0  0  0  0  0  0  0999 V2000
    3.6462   -0.3552    1.7303 C   0  0  0  0  0  0  0  0  0  0  0  0
    2.4062   -0.6942    0.8992 C   0  0  2  0  0  0  0  0  0  0  0  0
    2.5741   -2.0547    0.3811 N   0  0  0  0  0  0  0  0  0  0  0  0
    1.4754   -2.8948    0.2718 C   0  0  0  0  0  0  0  0  0  0  0  0
    1.6665   -4.2277   -0.1037 C   0  0  0  0  0  0  0  0  0  0  0  0
    0.6733   -5.1414   -0.1843 N   0  0  0  0  0  0  0  0  0  0  0  0
   -0.5455   -4.6605    0.1466 C   0  0  0  0  0  0  0  0  0  0  0  0
   -0.7853   -3.3401    0.5420 C   0  0  0  0  0  0  0  0  0  0  0  0
    0.2386   -2.4530    0.5912 N   0  0  0  0  0  0  0  0  0  0  0  0
   -2.1026   -2.9578    0.8447 N   0  0  0  0  0  0  0  0  0  0  0  0
   -2.7112   -1.7600    0.7951 C   0  0  0  0  0  0  0  0  0  0  0  0
   -2.2381   -0.5899    0.1573 C   0  0  0  0  0  0  0  0  0  0  0  0
   -3.2422    0.3438    0.3086 C   0  0  0  0  0  0  0  0  0  0  0  0
   -4.2159   -0.2946    1.0244 N   0  0  0  0  0  0  0  0  0  0  0  0
   -3.9253   -1.5692    1.3173 N   0  0  0  0  0  0  0  0  0  0  0  0
   -3.3973    1.7480   -0.1651 C   0  0  0  0  0  0  0  0  0  0  0  0
   -2.7942    2.7676    0.8070 C   0  0  0  0  0  0  0  0  0  0  0  0
   -1.2732    2.9066    0.7080 C   0  0  0  0  0  0  0  0  0  0  0  0
   -0.7895    3.7862   -0.8197 S   0  0  0  0  0  0  0  0  0  0  0  0
    1.0194    3.7769   -0.6035 C   0  0  0  0  0  0  0  0  0  0  0  0
    1.6412    2.4463   -0.9300 C   0  0  0  0  0  0  0  0  0  0  0  0
    1.7366    1.5346    0.0724 N   0  0  0  0  0  0  0  0  0  0  0  0
    2.2730    0.3299   -0.2314 C   0  0  0  0  0  0  0  0  0  0  0  0
    2.7667    0.0034   -1.4526 N   0  0  0  0  0  0  0  0  0  0  0  0
    2.6414    0.9380   -2.4179 C   0  0  0  0  0  0  0  0  0  0  0  0
    2.0825    2.1749   -2.2085 C   0  0  0  0  0  0  0  0  0  0  0  0
    1.9974    3.0706   -3.1992 F   0  0  0  0  0  0  0  0  0  0  0  0
    3.5728    0.6498    2.1606 H   0  0  0  0  0  0  0  0  0  0  0  0
    4.5599   -0.3929    1.1251 H   0  0  0  0  0  0  0  0  0  0  0  0
    3.7660   -1.0671    2.5546 H   0  0  0  0  0  0  0  0  0  0  0  0
    1.5325   -0.6114    1.5571 H   0  0  0  0  0  0  0  0  0  0  0  0
    3.2322   -2.1150   -0.3900 H   0  0  0  0  0  0  0  0  0  0  0  0
    2.6569   -4.6014   -0.3409 H   0  0  0  0  0  0  0  0  0  0  0  0
   -1.3550   -5.3795    0.0768 H   0  0  0  0  0  0  0  0  0  0  0  0
   -2.6315   -3.6799    1.3150 H   0  0  0  0  0  0  0  0  0  0  0  0
   -1.3020   -0.4573   -0.3669 H   0  0  0  0  0  0  0  0  0  0  0  0
   -5.1105    0.0741    1.3292 H   0  0  0  0  0  0  0  0  0  0  0  0
   -4.4687    1.9651   -0.2686 H   0  0  0  0  0  0  0  0  0  0  0  0
   -2.9724    1.8479   -1.1697 H   0  0  0  0  0  0  0  0  0  0  0  0
   -3.2610    3.7462    0.6347 H   0  0  0  0  0  0  0  0  0  0  0  0
   -3.0514    2.4868    1.8368 H   0  0  0  0  0  0  0  0  0  0  0  0
   -0.7961    1.9254    0.7492 H   0  0  0  0  0  0  0  0  0  0  0  0
   -0.9161    3.4961    1.5589 H   0  0  0  0  0  0  0  0  0  0  0  0
    1.2649    4.0645    0.4249 H   0  0  0  0  0  0  0  0  0  0  0  0
    1.4433    4.5548   -1.2482 H   0  0  0  0  0  0  0  0  0  0  0  0
    3.0177    0.6599   -3.3967 H   0  0  0  0  0  0  0  0  0  0  0  0
  1  2  1  0
  2  3  1  0
  3  4  1  0
  4  5  2  0
  5  6  1  0
  6  7  2  0
  7  8  1  0
  8  9  2  0
  8 10  1  0
 10 11  1  0
 11 12  1  0
 12 13  2  0
 13 14  1  0
 14 15  1  0
 13 16  1  0
 16 17  1  0
 17 18  1  0
 18 19  1  0
 19 20  1  0
 20 21  1  0
 21 22  2  0
 22 23  1  0
 23 24  2  0
 24 25  1  0
 25 26  2  0
 26 27  1  0
 23  2  1  0
  9  4  1  0
 15 11  2  0
 26 21  1  0
  1 28  1  0
  1 29  1  0
  1 30  1  0
  2 31  1  1
  3 32  1  0
  5 33  1  0
  7 34  1  0
 10 35  1  0
 12 36  1  0
 14 37  1  0
 16 38  1  0
 16 39  1  0
 17 40  1  0
 17 41  1  0
 18 42  1  0
 18 43  1  0
 20 44  1  0
 20 45  1  0
 25 46  1  0
M  END
>  <candidate_id>  (124) 
CAND_5aa3611fa3

>  <source_generator>  (124) 
macrocycle_linker

>  <parent_mol_id>  (124) 
JAK2_6111c0246b

>  <canonical_smiles>  (124) 
C[C@@H]1Nc2cncc(n2)Nc2cc([nH]n2)CCCSCc2nc1ncc2F

>  <inchikey>  (124) 
CGVADSSMDOHUOT-JTQLQIEISA-N

>  <valid_rdkit>  (124) 
True

>  <unique_flag>  (124) 
True

>  <novel_flag>  (124) 
True

>  <mw>  (124) 
386.46

>  <logp>  (124) 
3.2249

>  <tpsa>  (124) 
104.3

>  <hbd>  (124) 
3

>  <hba>  (124) 
8

>  <rotatable_bonds>  (124) 
0

>  <qed>  (124) 
0.5409

>  <sa_score>  (124) 
3.653

>  <murcko_scaffold>  (124) 
c1cc2nc(n1)CNc1cncc(n1)Nc1cc([nH]n1)CCCSC2

>  <max_ring_size>  (124) 
17

>  <has_macrocycle_12_20>  (124) 
True

>  <has_constrained_ring_8_11>  (124) 
False

>  <passes_basic_filters>  (124) 
True

>  <generation_notes>  (124) 
macrocycle_bridge_thioether_path12_ring16

>  <best_score>  (124) 
nan

>  <qed_admet>  (124) 
0.5409

>  <sa_score_admet>  (124) 
3.653

>  <mw_admet>  (124) 
386.46

>  <logp_admet>  (124) 
3.2249

>  <tpsa_admet>  (124) 
104.3

>  <hbd_admet>  (124) 
3

>  <hba_admet>  (124) 
8

>  <rotatable_bonds_admet>  (124) 
0

>  <lipinski_violations>  (124) 
0

>  <veber_pass>  (124) 
True

>  <admet_score>  (124) 
0.793405

>  <synthesis_score>  (124) 
0.705222

>  <safety_proxy_score>  (124) 
1.0

>  <main_risk>  (124) 
no_major_descriptor_risk

>  <pose_score>  (124) 
0.5

>  <pose_decision>  (124) 
nan

>  <contacts_within_4A>  (124) 
nan

>  <hard_clashes_lt_1_8A>  (124) 
nan

>  <smiles>  (124) 
C[C@@H]1Nc2cncc(n2)Nc2cc([nH]n2)CCCSCc2nc1ncc2F

>  <docking_score>  (124) 
nan

>  <diversity_cluster>  (124) 
scaffold_be363df2

>  <docking_score_scaled>  (124) 
0.0

>  <novelty_score>  (124) 
1.0

>  <final_weighted_score>  (124) 
0.489464

>  <rank>  (124) 
1711

>  <decision>  (124) 
await_docking

>  <diverse_rank>  (124) 
1089

>  <selection_tier>  (124) 
await_docking

$$$$
CAND_8f936e6ccd
     RDKit          3D

 46 49  0  0  0  0  0  0  0  0999 V2000
    1.4949    3.2587   -1.8915 C   0  0  0  0  0  0  0  0  0  0  0  0
    0.2029    2.8590   -1.2630 C   0  0  0  0  0  0  0  0  0  0  0  0
   -0.9898    3.3315   -1.7768 C   0  0  0  0  0  0  0  0  0  0  0  0
   -2.2072    3.0131   -1.2983 N   0  0  0  0  0  0  0  0  0  0  0  0
   -2.2254    2.2294   -0.2212 C   0  0  0  0  0  0  0  0  0  0  0  0
   -1.1247    1.8164    0.4075 N   0  0  0  0  0  0  0  0  0  0  0  0
    0.0697    2.0251   -0.1721 C   0  0  0  0  0  0  0  0  0  0  0  0
    1.0828    1.2543    0.4037 N   0  0  0  0  0  0  0  0  0  0  0  0
    1.9609    0.4189   -0.1998 C   0  0  0  0  0  0  0  0  0  0  0  0
    2.2169    0.3363   -1.5074 N   0  0  0  0  0  0  0  0  0  0  0  0
    3.0625   -0.6872   -1.6316 N   0  0  0  0  0  0  0  0  0  0  0  0
    3.3708   -1.2910   -0.4492 C   0  0  0  0  0  0  0  0  0  0  0  0
    4.2929   -2.4478   -0.3724 C   0  0  0  0  0  0  0  0  0  0  0  0
    2.6692   -0.5942    0.5236 C   0  0  0  0  0  0  0  0  0  0  0  0
    2.7081   -0.8521    1.9913 C   0  0  0  0  0  0  0  0  0  0  0  0
    1.0981   -1.0156    2.8113 S   0  0  0  0  0  0  0  0  0  0  0  0
    0.3453   -2.3820    1.8504 C   0  0  0  0  0  0  0  0  0  0  0  0
   -0.7582   -1.9239    0.9272 C   0  0  0  0  0  0  0  0  0  0  0  0
   -1.6930   -1.0708    1.4197 N   0  0  0  0  0  0  0  0  0  0  0  0
   -2.6462   -0.6172    0.5689 C   0  0  0  0  0  0  0  0  0  0  0  0
   -2.8056   -1.0687   -0.6970 N   0  0  0  0  0  0  0  0  0  0  0  0
   -1.8795   -1.9497   -1.1318 C   0  0  0  0  0  0  0  0  0  0  0  0
   -0.8302   -2.3996   -0.3642 C   0  0  0  0  0  0  0  0  0  0  0  0
    0.0604   -3.2723   -0.8530 F   0  0  0  0  0  0  0  0  0  0  0  0
   -3.5044    0.5674    1.0460 C   0  0  2  0  0  0  0  0  0  0  0  0
   -4.9588    0.1236    1.1957 C   0  0  0  0  0  0  0  0  0  0  0  0
   -3.4480    1.7343    0.1640 N   0  0  0  0  0  0  0  0  0  0  0  0
    1.6956    2.6541   -2.7806 H   0  0  0  0  0  0  0  0  0  0  0  0
    2.3328    3.1718   -1.1929 H   0  0  0  0  0  0  0  0  0  0  0  0
    1.4588    4.3108   -2.1968 H   0  0  0  0  0  0  0  0  0  0  0  0
   -1.0051    3.9910   -2.6405 H   0  0  0  0  0  0  0  0  0  0  0  0
    0.7239    0.9545    1.3100 H   0  0  0  0  0  0  0  0  0  0  0  0
    3.3904   -0.9241   -2.5623 H   0  0  0  0  0  0  0  0  0  0  0  0
    4.6827   -2.7216   -1.3581 H   0  0  0  0  0  0  0  0  0  0  0  0
    3.7750   -3.3195    0.0402 H   0  0  0  0  0  0  0  0  0  0  0  0
    5.1444   -2.2144    0.2746 H   0  0  0  0  0  0  0  0  0  0  0  0
    3.2841   -1.7569    2.2132 H   0  0  0  0  0  0  0  0  0  0  0  0
    3.2374   -0.0235    2.4755 H   0  0  0  0  0  0  0  0  0  0  0  0
    1.1246   -2.9307    1.3125 H   0  0  0  0  0  0  0  0  0  0  0  0
   -0.0942   -3.0821    2.5696 H   0  0  0  0  0  0  0  0  0  0  0  0
   -2.0001   -2.2884   -2.1550 H   0  0  0  0  0  0  0  0  0  0  0  0
   -3.1475    0.8686    2.0400 H   0  0  0  0  0  0  0  0  0  0  0  0
   -5.3889   -0.1805    0.2342 H   0  0  0  0  0  0  0  0  0  0  0  0
   -5.5752    0.9402    1.5878 H   0  0  0  0  0  0  0  0  0  0  0  0
   -5.0431   -0.7254    1.8830 H   0  0  0  0  0  0  0  0  0  0  0  0
   -4.1595    1.8802   -0.5345 H   0  0  0  0  0  0  0  0  0  0  0  0
  1  2  1  0
  2  3  2  0
  3  4  1  0
  4  5  2  0
  5  6  1  0
  6  7  2  0
  7  8  1  0
  8  9  1  0
  9 10  2  0
 10 11  1  0
 11 12  1  0
 12 13  1  0
 12 14  2  0
 14 15  1  0
 15 16  1  0
 16 17  1  0
 17 18  1  0
 18 19  2  0
 19 20  1  0
 20 21  2  0
 21 22  1  0
 22 23  2  0
 23 24  1  0
 20 25  1  0
 25 26  1  0
 25 27  1  0
  7  2  1  0
 14  9  1  0
 23 18  1  0
 27  5  1  0
  1 28  1  0
  1 29  1  0
  1 30  1  0
  3 31  1  0
  8 32  1  0
 11 33  1  0
 13 34  1  0
 13 35  1  0
 13 36  1  0
 15 37  1  0
 15 38  1  0
 17 39  1  0
 17 40  1  0
 22 41  1  0
 25 42  1  1
 26 43  1  0
 26 44  1  0
 26 45  1  0
 27 46  1  0
M  END
>  <candidate_id>  (125) 
CAND_8f936e6ccd

>  <source_generator>  (125) 
macrocycle_linker

>  <parent_mol_id>  (125) 
JAK2_f8ef9f9f68

>  <canonical_smiles>  (125) 
Cc1cnc2nc1Nc1n[nH]c(C)c1CSCc1nc(ncc1F)[C@H](C)N2

>  <inchikey>  (125) 
OKWCJWTYPSXRHO-JTQLQIEISA-N

>  <valid_rdkit>  (125) 
True

>  <unique_flag>  (125) 
True

>  <novel_flag>  (125) 
True

>  <mw>  (125) 
386.46

>  <logp>  (125) 
3.4091

>  <tpsa>  (125) 
104.3

>  <hbd>  (125) 
3

>  <hba>  (125) 
8

>  <rotatable_bonds>  (125) 
0

>  <qed>  (125) 
0.5399

>  <sa_score>  (125) 
3.653

>  <murcko_scaffold>  (125) 
c1cc2nc(n1)CNc1nccc(n1)Nc1n[nH]cc1CSC2

>  <max_ring_size>  (125) 
14

>  <has_macrocycle_12_20>  (125) 
True

>  <has_constrained_ring_8_11>  (125) 
False

>  <passes_basic_filters>  (125) 
True

>  <generation_notes>  (125) 
macrocycle_bridge_thioether_path10_ring13

>  <best_score>  (125) 
nan

>  <qed_admet>  (125) 
0.5399

>  <sa_score_admet>  (125) 
3.653

>  <mw_admet>  (125) 
386.46

>  <logp_admet>  (125) 
3.4091

>  <tpsa_admet>  (125) 
104.3

>  <hbd_admet>  (125) 
3

>  <hba_admet>  (125) 
8

>  <rotatable_bonds_admet>  (125) 
0

>  <lipinski_violations>  (125) 
0

>  <veber_pass>  (125) 
True

>  <admet_score>  (125) 
0.792955

>  <synthesis_score>  (125) 
0.705222

>  <safety_proxy_score>  (125) 
1.0

>  <main_risk>  (125) 
no_major_descriptor_risk

>  <pose_score>  (125) 
0.5

>  <pose_decision>  (125) 
nan

>  <contacts_within_4A>  (125) 
nan

>  <hard_clashes_lt_1_8A>  (125) 
nan

>  <smiles>  (125) 
Cc1cnc2nc1Nc1n[nH]c(C)c1CSCc1nc(ncc1F)[C@H](C)N2

>  <docking_score>  (125) 
nan

>  <diversity_cluster>  (125) 
scaffold_be104eaf

>  <docking_score_scaled>  (125) 
0.0

>  <novelty_score>  (125) 
1.0

>  <final_weighted_score>  (125) 
0.489374

>  <rank>  (125) 
1717

>  <decision>  (125) 
await_docking

>  <diverse_rank>  (125) 
1091

>  <selection_tier>  (125) 
await_docking

$$$$
CAND_c62f51e470
     RDKit          3D

 61 63  0  0  0  0  0  0  0  0999 V2000
    7.3571    0.5268    0.2539 C   0  0  0  0  0  0  0  0  0  0  0  0
    5.9879    0.5656   -0.3977 C   0  0  0  0  0  0  0  0  0  0  0  0
    5.5227    1.7618   -0.8091 C   0  0  0  0  0  0  0  0  0  0  0  0
    4.2472    2.0948   -1.5066 C   0  0  0  0  0  0  0  0  0  0  0  0
    3.4136    2.8434   -0.6070 N   0  0  0  0  0  0  0  0  0  0  0  0
    2.5938    2.2845    0.3177 C   0  0  0  0  0  0  0  0  0  0  0  0
    1.8513    2.9812    1.1037 N   0  0  0  0  0  0  0  0  0  0  0  0
    1.0538    2.1140    1.9795 C   0  0  0  0  0  0  0  0  0  0  0  0
   -0.1292    1.5588    1.3428 N   0  0  0  0  0  0  0  0  0  0  0  0
   -1.1201    2.5314    0.8862 C   0  0  0  0  0  0  0  0  0  0  0  0
   -1.9033    1.9775   -0.3022 C   0  0  0  0  0  0  0  0  0  0  0  0
   -2.5633    0.7231    0.0532 N   0  0  0  0  0  0  0  0  0  0  0  0
   -3.8915    0.5234   -0.3028 C   0  0  0  0  0  0  0  0  0  0  0  0
   -4.5602    1.4176   -0.8236 O   0  0  0  0  0  0  0  0  0  0  0  0
   -4.4937   -0.8405    0.0260 C   0  0  0  0  0  0  0  0  0  0  0  0
   -5.7638   -1.1431   -0.7268 C   0  0  0  0  0  0  0  0  0  0  0  0
   -7.0219   -0.8922   -0.1627 C   0  0  0  0  0  0  0  0  0  0  0  0
   -8.1857   -1.1655   -0.8868 C   0  0  0  0  0  0  0  0  0  0  0  0
   -8.1039   -1.6841   -2.1799 C   0  0  0  0  0  0  0  0  0  0  0  0
   -6.8569   -1.9274   -2.7524 C   0  0  0  0  0  0  0  0  0  0  0  0
   -5.7019   -1.6532   -2.0265 C   0  0  0  0  0  0  0  0  0  0  0  0
   -4.5093   -1.8979   -2.5892 F   0  0  0  0  0  0  0  0  0  0  0  0
   -1.7140   -0.2944    0.6740 C   0  0  0  0  0  0  0  0  0  0  0  0
   -0.3681    0.1894    1.2850 C   0  0  0  0  0  0  0  0  0  0  0  0
    0.5191   -0.6656    1.7286 N   0  0  0  0  0  0  0  0  0  0  0  0
    0.2088   -1.9824    1.7750 N   0  0  0  0  0  0  0  0  0  0  0  0
    1.1222   -2.9732    2.0373 C   0  0  0  0  0  0  0  0  0  0  0  0
    2.4447   -3.0785    1.8524 C   0  0  0  0  0  0  0  0  0  0  0  0
    3.3546   -2.1644    1.2020 C   0  0  0  0  0  0  0  0  0  0  0  0
    3.2134   -1.7280   -0.0574 C   0  0  0  0  0  0  0  0  0  0  0  0
    4.1069   -1.0046   -0.8131 N   0  0  0  0  0  0  0  0  0  0  0  0
    5.3731   -0.6690   -0.4736 N   0  0  0  0  0  0  0  0  0  0  0  0
    7.2775    0.1364    1.2746 H   0  0  0  0  0  0  0  0  0  0  0  0
    7.8279    1.5137    0.3140 H   0  0  0  0  0  0  0  0  0  0  0  0
    8.0282   -0.1253   -0.3158 H   0  0  0  0  0  0  0  0  0  0  0  0
    6.1504    2.6357   -0.6432 H   0  0  0  0  0  0  0  0  0  0  0  0
    3.7132    1.2312   -1.9039 H   0  0  0  0  0  0  0  0  0  0  0  0
    4.4840    2.7209   -2.3747 H   0  0  0  0  0  0  0  0  0  0  0  0
    3.4495    3.8531   -0.6345 H   0  0  0  0  0  0  0  0  0  0  0  0
    2.6142    1.1791    0.3200 H   0  0  0  0  0  0  0  0  0  0  0  0
    1.6908    1.3441    2.4352 H   0  0  0  0  0  0  0  0  0  0  0  0
    0.7262    2.7269    2.8290 H   0  0  0  0  0  0  0  0  0  0  0  0
   -0.6473    3.4736    0.5879 H   0  0  0  0  0  0  0  0  0  0  0  0
   -1.8031    2.7535    1.7151 H   0  0  0  0  0  0  0  0  0  0  0  0
   -2.6275    2.7232   -0.6443 H   0  0  0  0  0  0  0  0  0  0  0  0
   -1.2306    1.7610   -1.1413 H   0  0  0  0  0  0  0  0  0  0  0  0
   -4.6846   -0.8729    1.1058 H   0  0  0  0  0  0  0  0  0  0  0  0
   -3.7721   -1.6358   -0.1917 H   0  0  0  0  0  0  0  0  0  0  0  0
   -7.1038   -0.4713    0.8369 H   0  0  0  0  0  0  0  0  0  0  0  0
   -9.1584   -0.9638   -0.4445 H   0  0  0  0  0  0  0  0  0  0  0  0
   -9.0109   -1.8900   -2.7421 H   0  0  0  0  0  0  0  0  0  0  0  0
   -6.7754   -2.3231   -3.7593 H   0  0  0  0  0  0  0  0  0  0  0  0
   -2.2875   -0.7820    1.4689 H   0  0  0  0  0  0  0  0  0  0  0  0
   -1.4896   -1.0370   -0.1004 H   0  0  0  0  0  0  0  0  0  0  0  0
   -0.7564   -2.2662    1.9279 H   0  0  0  0  0  0  0  0  0  0  0  0
    0.6233   -3.8252    2.4966 H   0  0  0  0  0  0  0  0  0  0  0  0
    2.9325   -3.9772    2.2266 H   0  0  0  0  0  0  0  0  0  0  0  0
    4.2587   -1.9255    1.7533 H   0  0  0  0  0  0  0  0  0  0  0  0
    2.3146   -1.9777   -0.6172 H   0  0  0  0  0  0  0  0  0  0  0  0
    3.8298   -0.8637   -1.7839 H   0  0  0  0  0  0  0  0  0  0  0  0
    5.9432   -1.4449   -0.1304 H   0  0  0  0  0  0  0  0  0  0  0  0
  1  2  1  0
  2  3  2  3
  3  4  1  0
  4  5  1  0
  5  6  1  0
  6  7  2  3
  7  8  1  0
  8  9  1  0
  9 10  1  0
 10 11  1  0
 11 12  1  0
 12 13  1  0
 13 14  2  0
 13 15  1  0
 15 16  1  0
 16 17  2  0
 17 18  1  0
 18 19  2  0
 19 20  1  0
 20 21  2  0
 21 22  1  0
 12 23  1  0
 23 24  1  0
 24 25  2  3
 25 26  1  0
 26 27  1  0
 27 28  2  3
 28 29  1  0
 29 30  2  3
 30 31  1  0
 31 32  1  0
 32  2  1  0
 24  9  1  0
 21 16  1  0
  1 33  1  0
  1 34  1  0
  1 35  1  0
  3 36  1  0
  4 37  1  0
  4 38  1  0
  5 39  1  0
  6 40  1  0
  8 41  1  0
  8 42  1  0
 10 43  1  0
 10 44  1  0
 11 45  1  0
 11 46  1  0
 15 47  1  0
 15 48  1  0
 17 49  1  0
 18 50  1  0
 19 51  1  0
 20 52  1  0
 23 53  1  0
 23 54  1  0
 26 55  1  0
 27 56  1  0
 28 57  1  0
 29 58  1  0
 30 59  1  0
 31 60  1  0
 32 61  1  0
M  END
>  <candidate_id>  (126) 
CAND_c62f51e470

>  <source_generator>  (126) 
selfies

>  <parent_mol_id>  (126) 
JAK2_36f756e547

>  <canonical_smiles>  (126) 
CC1=CCNC=NCN2CCN(C(=O)Cc3ccccc3F)CC2=NNC=CC=CNN1

>  <inchikey>  (126) 
WYVMCOTXVNWVKI-UHFFFAOYSA-N

>  <valid_rdkit>  (126) 
True

>  <unique_flag>  (126) 
True

>  <novel_flag>  (126) 
True

>  <mw>  (126) 
440.527

>  <logp>  (126) 
1.0299

>  <tpsa>  (126) 
96.39

>  <hbd>  (126) 
4

>  <hba>  (126) 
8

>  <rotatable_bonds>  (126) 
2

>  <qed>  (126) 
0.5488

>  <sa_score>  (126) 
3.703

>  <murcko_scaffold>  (126) 
O=C(Cc1ccccc1)N1CCN2CN=CNCC=CNNC=CC=CNN=C2C1

>  <max_ring_size>  (126) 
17

>  <has_macrocycle_12_20>  (126) 
True

>  <has_constrained_ring_8_11>  (126) 
False

>  <passes_basic_filters>  (126) 
True

>  <generation_notes>  (126) 
selfies_token_mutation

>  <best_score>  (126) 
nan

>  <qed_admet>  (126) 
0.5488

>  <sa_score_admet>  (126) 
3.703

>  <mw_admet>  (126) 
440.527

>  <logp_admet>  (126) 
1.0299

>  <tpsa_admet>  (126) 
96.39

>  <hbd_admet>  (126) 
4

>  <hba_admet>  (126) 
8

>  <rotatable_bonds_admet>  (126) 
2

>  <lipinski_violations>  (126) 
0

>  <veber_pass>  (126) 
True

>  <admet_score>  (126) 
0.79696

>  <synthesis_score>  (126) 
0.699667

>  <safety_proxy_score>  (126) 
1.0

>  <main_risk>  (126) 
no_major_descriptor_risk

>  <pose_score>  (126) 
0.5

>  <pose_decision>  (126) 
nan

>  <contacts_within_4A>  (126) 
nan

>  <hard_clashes_lt_1_8A>  (126) 
nan

>  <smiles>  (126) 
CC1=CCNC=NCN2CCN(C(=O)Cc3ccccc3F)CC2=NNC=CC=CNN1

>  <docking_score>  (126) 
nan

>  <diversity_cluster>  (126) 
scaffold_5a66dc0f

>  <docking_score_scaled>  (126) 
0.0

>  <novelty_score>  (126) 
1.0

>  <final_weighted_score>  (126) 
0.489342

>  <rank>  (126) 
1728

>  <decision>  (126) 
await_docking

>  <diverse_rank>  (126) 
1092

>  <selection_tier>  (126) 
await_docking

$$$$
CAND_8d5a278190
     RDKit          3D

 45 48  0  0  0  0  0  0  0  0999 V2000
    1.5849   -1.2866    3.0387 C   0  0  0  0  0  0  0  0  0  0  0  0
    1.2630   -1.0365    1.5620 C   0  0  2  0  0  0  0  0  0  0  0  0
    1.5349   -2.2690    0.8184 N   0  0  0  0  0  0  0  0  0  0  0  0
    0.5363   -2.8424    0.0460 C   0  0  0  0  0  0  0  0  0  0  0  0
    0.7478   -4.0523   -0.6143 C   0  0  0  0  0  0  0  0  0  0  0  0
   -0.1902   -4.6783   -1.3661 N   0  0  0  0  0  0  0  0  0  0  0  0
   -1.3821   -4.0378   -1.4231 C   0  0  0  0  0  0  0  0  0  0  0  0
   -1.6509   -2.8440   -0.7553 C   0  0  0  0  0  0  0  0  0  0  0  0
   -0.6770   -2.2622   -0.0186 N   0  0  0  0  0  0  0  0  0  0  0  0
   -2.9035   -2.2224   -0.8927 N   0  0  0  0  0  0  0  0  0  0  0  0
   -3.2645   -0.9572   -0.5938 C   0  0  0  0  0  0  0  0  0  0  0  0
   -2.3881    0.1348   -0.3870 C   0  0  0  0  0  0  0  0  0  0  0  0
   -3.1889    1.2084   -0.0726 C   0  0  0  0  0  0  0  0  0  0  0  0
   -4.4635    0.7206   -0.1423 N   0  0  0  0  0  0  0  0  0  0  0  0
   -4.5409   -0.5788   -0.4837 N   0  0  0  0  0  0  0  0  0  0  0  0
   -2.9804    2.4852    0.2541 O   0  0  0  0  0  0  0  0  0  0  0  0
   -1.6134    2.9279    0.2572 C   0  0  0  0  0  0  0  0  0  0  0  0
   -1.2321    3.4339   -1.1312 C   0  0  0  0  0  0  0  0  0  0  0  0
    0.4731    4.0754   -1.2119 S   0  0  0  0  0  0  0  0  0  0  0  0
    1.3510    2.5751   -1.7665 C   0  0  0  0  0  0  0  0  0  0  0  0
    2.0600    1.8504   -0.6539 C   0  0  0  0  0  0  0  0  0  0  0  0
    1.3976    0.8318   -0.0393 N   0  0  0  0  0  0  0  0  0  0  0  0
    2.0368    0.1290    0.9397 C   0  0  0  0  0  0  0  0  0  0  0  0
    3.3491    0.4294    1.3119 C   0  0  0  0  0  0  0  0  0  0  0  0
    4.0097    1.4854    0.6875 C   0  0  0  0  0  0  0  0  0  0  0  0
    3.3571    2.2006   -0.3037 C   0  0  0  0  0  0  0  0  0  0  0  0
    3.9993    3.1971   -0.9277 F   0  0  0  0  0  0  0  0  0  0  0  0
    1.4707   -0.3712    3.6292 H   0  0  0  0  0  0  0  0  0  0  0  0
    2.6034   -1.6636    3.1831 H   0  0  0  0  0  0  0  0  0  0  0  0
    0.9062   -2.0417    3.4519 H   0  0  0  0  0  0  0  0  0  0  0  0
    0.2037   -0.7532    1.5354 H   0  0  0  0  0  0  0  0  0  0  0  0
    2.4827   -2.4037    0.4952 H   0  0  0  0  0  0  0  0  0  0  0  0
    1.7025   -4.5628   -0.5528 H   0  0  0  0  0  0  0  0  0  0  0  0
   -2.1327   -4.5189   -2.0406 H   0  0  0  0  0  0  0  0  0  0  0  0
   -3.6695   -2.8682   -1.0262 H   0  0  0  0  0  0  0  0  0  0  0  0
   -1.3097    0.1247   -0.4407 H   0  0  0  0  0  0  0  0  0  0  0  0
   -5.3202    1.2325    0.0292 H   0  0  0  0  0  0  0  0  0  0  0  0
   -0.9391    2.1513    0.6338 H   0  0  0  0  0  0  0  0  0  0  0  0
   -1.5633    3.7563    0.9739 H   0  0  0  0  0  0  0  0  0  0  0  0
   -1.3948    2.6695   -1.8976 H   0  0  0  0  0  0  0  0  0  0  0  0
   -1.9038    4.2581   -1.3986 H   0  0  0  0  0  0  0  0  0  0  0  0
    0.6622    1.8908   -2.2732 H   0  0  0  0  0  0  0  0  0  0  0  0
    2.0808    2.8790   -2.5256 H   0  0  0  0  0  0  0  0  0  0  0  0
    3.8685   -0.1418    2.0739 H   0  0  0  0  0  0  0  0  0  0  0  0
    5.0276    1.7458    0.9587 H   0  0  0  0  0  0  0  0  0  0  0  0
  1  2  1  0
  2  3  1  0
  3  4  1  0
  4  5  2  0
  5  6  1  0
  6  7  2  0
  7  8  1  0
  8  9  2  0
  8 10  1  0
 10 11  1  0
 11 12  1  0
 12 13  2  0
 13 14  1  0
 14 15  1  0
 13 16  1  0
 16 17  1  0
 17 18  1  0
 18 19  1  0
 19 20  1  0
 20 21  1  0
 21 22  2  0
 22 23  1  0
 23 24  2  0
 24 25  1  0
 25 26  2  0
 26 27  1  0
 23  2  1  0
  9  4  1  0
 15 11  2  0
 26 21  1  0
  1 28  1  0
  1 29  1  0
  1 30  1  0
  2 31  1  1
  3 32  1  0
  5 33  1  0
  7 34  1  0
 10 35  1  0
 12 36  1  0
 14 37  1  0
 17 38  1  0
 17 39  1  0
 18 40  1  0
 18 41  1  0
 20 42  1  0
 20 43  1  0
 24 44  1  0
 25 45  1  0
M  END
>  <candidate_id>  (127) 
CAND_8d5a278190

>  <source_generator>  (127) 
macrocycle_linker

>  <parent_mol_id>  (127) 
JAK2_5244fcd33d

>  <canonical_smiles>  (127) 
C[C@@H]1Nc2cncc(n2)Nc2cc([nH]n2)OCCSCc2nc1ccc2F

>  <inchikey>  (127) 
TXDUIFLRFHARPR-JTQLQIEISA-N

>  <valid_rdkit>  (127) 
True

>  <unique_flag>  (127) 
True

>  <novel_flag>  (127) 
True

>  <mw>  (127) 
387.444

>  <logp>  (127) 
3.2761

>  <tpsa>  (127) 
100.64

>  <hbd>  (127) 
3

>  <hba>  (127) 
8

>  <rotatable_bonds>  (127) 
0

>  <qed>  (127) 
0.5403

>  <sa_score>  (127) 
3.658

>  <murcko_scaffold>  (127) 
c1cc2nc(c1)CSCCOc1cc(n[nH]1)Nc1cncc(n1)NC2

>  <max_ring_size>  (127) 
17

>  <has_macrocycle_12_20>  (127) 
True

>  <has_constrained_ring_8_11>  (127) 
False

>  <passes_basic_filters>  (127) 
True

>  <generation_notes>  (127) 
macrocycle_bridge_thioether_path13_ring16

>  <best_score>  (127) 
nan

>  <qed_admet>  (127) 
0.5403

>  <sa_score_admet>  (127) 
3.658

>  <mw_admet>  (127) 
387.444

>  <logp_admet>  (127) 
3.2761

>  <tpsa_admet>  (127) 
100.64

>  <hbd_admet>  (127) 
3

>  <hba_admet>  (127) 
8

>  <rotatable_bonds_admet>  (127) 
0

>  <lipinski_violations>  (127) 
0

>  <veber_pass>  (127) 
True

>  <admet_score>  (127) 
0.793135

>  <synthesis_score>  (127) 
0.704667

>  <safety_proxy_score>  (127) 
1.0

>  <main_risk>  (127) 
no_major_descriptor_risk

>  <pose_score>  (127) 
0.5

>  <pose_decision>  (127) 
nan

>  <contacts_within_4A>  (127) 
nan

>  <hard_clashes_lt_1_8A>  (127) 
nan

>  <smiles>  (127) 
C[C@@H]1Nc2cncc(n2)Nc2cc([nH]n2)OCCSCc2nc1ccc2F

>  <docking_score>  (127) 
nan

>  <diversity_cluster>  (127) 
scaffold_5518ccb0

>  <docking_score_scaled>  (127) 
0.0

>  <novelty_score>  (127) 
1.0

>  <final_weighted_score>  (127) 
0.489327

>  <rank>  (127) 
1729

>  <decision>  (127) 
await_docking

>  <diverse_rank>  (127) 
1093

>  <selection_tier>  (127) 
await_docking

$$$$
CAND_2b6e6df8b8
     RDKit          3D

 53 57  0  0  0  0  0  0  0  0999 V2000
   -4.9739   -2.7440    2.6863 N   0  0  0  0  0  0  0  0  0  0  0  0
   -3.9542   -2.9294    2.1653 C   0  0  0  0  0  0  0  0  0  0  0  0
   -2.6600   -3.1400    1.5081 C   0  0  0  0  0  0  0  0  0  0  0  0
   -1.9407   -1.8062    1.2510 C   0  0  2  0  0  0  0  0  0  0  0  0
   -2.6846   -0.8617    0.2481 C   0  0  0  0  0  0  0  0  0  0  0  0
   -2.9848   -1.4837   -1.1200 C   0  0  0  0  0  0  0  0  0  0  0  0
   -3.4640   -0.3008   -1.9453 C   0  0  0  0  0  0  0  0  0  0  0  0
   -2.6344    0.8880   -1.4708 C   0  0  0  0  0  0  0  0  0  0  0  0
   -1.9709    0.4638   -0.1430 C   0  0  0  0  0  0  0  0  0  0  0  0
   -2.0544    1.5719    0.9230 C   0  0  0  0  0  0  0  0  0  0  0  0
   -1.1013    2.7599    0.6569 C   0  0  0  0  0  0  0  0  0  0  0  0
    0.2042    2.5022    1.2609 N   0  0  0  0  0  0  0  0  0  0  0  0
    1.2497    3.4759    0.8973 C   0  0  0  0  0  0  0  0  0  0  0  0
    2.0356    3.1805   -0.4012 C   0  0  0  0  0  0  0  0  0  0  0  0
    2.7201    1.8333   -0.4006 C   0  0  0  0  0  0  0  0  0  0  0  0
    1.9316    0.7976   -0.0705 N   0  0  0  0  0  0  0  0  0  0  0  0
    2.4250   -0.4600   -0.0780 C   0  0  0  0  0  0  0  0  0  0  0  0
    3.7351   -0.6819   -0.4706 C   0  0  0  0  0  0  0  0  0  0  0  0
    4.6185   -1.7814   -0.6425 C   0  0  0  0  0  0  0  0  0  0  0  0
    5.8308   -1.2771   -1.0672 C   0  0  0  0  0  0  0  0  0  0  0  0
    5.7129    0.0879   -1.1555 N   0  0  0  0  0  0  0  0  0  0  0  0
    4.4473    0.4675   -0.7981 C   0  0  0  0  0  0  0  0  0  0  0  0
    4.0058    1.7401   -0.7853 N   0  0  0  0  0  0  0  0  0  0  0  0
    1.4608   -1.4714    0.2569 C   0  0  0  0  0  0  0  0  0  0  0  0
    0.9992   -2.6015   -0.4464 C   0  0  0  0  0  0  0  0  0  0  0  0
   -0.2068   -3.0035   -0.0183 N   0  0  0  0  0  0  0  0  0  0  0  0
   -0.5462   -2.0549    0.8796 N   0  0  0  0  0  0  0  0  0  0  0  0
    0.5035   -1.2593    1.2300 C   0  0  0  0  0  0  0  0  0  0  0  0
   -2.0420   -3.7750    2.1563 H   0  0  0  0  0  0  0  0  0  0  0  0
   -2.8032   -3.7020    0.5782 H   0  0  0  0  0  0  0  0  0  0  0  0
   -1.8811   -1.2707    2.2099 H   0  0  0  0  0  0  0  0  0  0  0  0
   -3.6478   -0.5928    0.7063 H   0  0  0  0  0  0  0  0  0  0  0  0
   -3.7483   -2.2655   -1.0703 H   0  0  0  0  0  0  0  0  0  0  0  0
   -2.0865   -1.9086   -1.5787 H   0  0  0  0  0  0  0  0  0  0  0  0
   -4.5252   -0.1120   -1.7430 H   0  0  0  0  0  0  0  0  0  0  0  0
   -3.3582   -0.4765   -3.0200 H   0  0  0  0  0  0  0  0  0  0  0  0
   -1.8612    1.1323   -2.2088 H   0  0  0  0  0  0  0  0  0  0  0  0
   -3.2699    1.7742   -1.3673 H   0  0  0  0  0  0  0  0  0  0  0  0
   -0.9213    0.2662   -0.3743 H   0  0  0  0  0  0  0  0  0  0  0  0
   -1.8537    1.1546    1.9176 H   0  0  0  0  0  0  0  0  0  0  0  0
   -3.0830    1.9530    0.9624 H   0  0  0  0  0  0  0  0  0  0  0  0
   -1.5259    3.6572    1.1212 H   0  0  0  0  0  0  0  0  0  0  0  0
   -1.0149    2.9475   -0.4186 H   0  0  0  0  0  0  0  0  0  0  0  0
    0.5390    1.5786    0.9587 H   0  0  0  0  0  0  0  0  0  0  0  0
    0.8268    4.4867    0.8507 H   0  0  0  0  0  0  0  0  0  0  0  0
    1.9677    3.4857    1.7270 H   0  0  0  0  0  0  0  0  0  0  0  0
    1.3604    3.2215   -1.2640 H   0  0  0  0  0  0  0  0  0  0  0  0
    2.7887    3.9648   -0.5420 H   0  0  0  0  0  0  0  0  0  0  0  0
    4.3969   -2.8270   -0.4696 H   0  0  0  0  0  0  0  0  0  0  0  0
    6.7644   -1.7678   -1.3097 H   0  0  0  0  0  0  0  0  0  0  0  0
    6.4343    0.7354   -1.4387 H   0  0  0  0  0  0  0  0  0  0  0  0
    1.4417   -3.0973   -1.3008 H   0  0  0  0  0  0  0  0  0  0  0  0
    0.3981   -0.4745    1.9676 H   0  0  0  0  0  0  0  0  0  0  0  0
  1  2  3  0
  2  3  1  0
  3  4  1  0
  4  5  1  0
  5  6  1  0
  6  7  1  0
  7  8  1  0
  8  9  1  0
  9 10  1  0
 10 11  1  0
 11 12  1  0
 12 13  1  0
 13 14  1  0
 14 15  1  0
 15 16  1  0
 16 17  2  0
 17 18  1  0
 18 19  1  0
 19 20  2  0
 20 21  1  0
 21 22  1  0
 22 23  1  0
 17 24  1  0
 24 25  1  0
 25 26  2  0
 26 27  1  0
 27 28  1  0
 27  4  1  0
  9  5  1  0
 23 15  2  0
 28 24  2  0
 22 18  2  0
  3 29  1  0
  3 30  1  0
  4 31  1  1
  5 32  1  0
  6 33  1  0
  6 34  1  0
  7 35  1  0
  7 36  1  0
  8 37  1  0
  8 38  1  0
  9 39  1  0
 10 40  1  0
 10 41  1  0
 11 42  1  0
 11 43  1  0
 12 44  1  0
 13 45  1  0
 13 46  1  0
 14 47  1  0
 14 48  1  0
 19 49  1  0
 20 50  1  0
 21 51  1  0
 25 52  1  0
 28 53  1  0
M  END
>  <candidate_id>  (128) 
CAND_2b6e6df8b8

>  <source_generator>  (128) 
macrocycle_linker

>  <parent_mol_id>  (128) 
JAK2_0363b39a60

>  <canonical_smiles>  (128) 
N#CC[C@@H]1C2CCCC2CCNCCc2nc(c3cc[nH]c3n2)-c2cnn1c2

>  <inchikey>  (128) 
VDQMFHBPWOGLFL-JFUPDXTOSA-N

>  <valid_rdkit>  (128) 
True

>  <unique_flag>  (128) 
True

>  <novel_flag>  (128) 
True

>  <mw>  (128) 
375.48

>  <logp>  (128) 
3.2283

>  <tpsa>  (128) 
95.21

>  <hbd>  (128) 
2

>  <hba>  (128) 
5

>  <rotatable_bonds>  (128) 
1

>  <qed>  (128) 
0.6808

>  <sa_score>  (128) 
4.417

>  <murcko_scaffold>  (128) 
c1cc2c3nc(nc2[nH]1)CCNCCC1CCCC1Cn1cc-3cn1

>  <max_ring_size>  (128) 
14

>  <has_macrocycle_12_20>  (128) 
True

>  <has_constrained_ring_8_11>  (128) 
False

>  <passes_basic_filters>  (128) 
True

>  <generation_notes>  (128) 
macrocycle_bridge_aza_path8_ring13

>  <best_score>  (128) 
nan

>  <qed_admet>  (128) 
0.6808

>  <sa_score_admet>  (128) 
4.417

>  <mw_admet>  (128) 
375.48

>  <logp_admet>  (128) 
3.2283

>  <tpsa_admet>  (128) 
95.21

>  <hbd_admet>  (128) 
2

>  <hba_admet>  (128) 
5

>  <rotatable_bonds_admet>  (128) 
1

>  <lipinski_violations>  (128) 
0

>  <veber_pass>  (128) 
True

>  <admet_score>  (128) 
0.85636

>  <synthesis_score>  (128) 
0.620333

>  <safety_proxy_score>  (128) 
1.0

>  <main_risk>  (128) 
no_major_descriptor_risk

>  <pose_score>  (128) 
0.5

>  <pose_decision>  (128) 
nan

>  <contacts_within_4A>  (128) 
nan

>  <hard_clashes_lt_1_8A>  (128) 
nan

>  <smiles>  (128) 
N#CC[C@@H]1C2CCCC2CCNCCc2nc(c3cc[nH]c3n2)-c2cnn1c2

>  <docking_score>  (128) 
nan

>  <diversity_cluster>  (128) 
scaffold_606cf99c

>  <docking_score_scaled>  (128) 
0.0

>  <novelty_score>  (128) 
1.0

>  <final_weighted_score>  (128) 
0.489322

>  <rank>  (128) 
1730

>  <decision>  (128) 
await_docking

>  <diverse_rank>  (128) 
1094

>  <selection_tier>  (128) 
await_docking

$$$$
CAND_f51492fec7
     RDKit          3D

 47 50  0  0  0  0  0  0  0  0999 V2000
    3.8816    3.2296   -0.5873 C   0  0  0  0  0  0  0  0  0  0  0  0
    3.5669    1.8117   -0.8580 C   0  0  0  0  0  0  0  0  0  0  0  0
    2.5755    0.9774   -0.3913 C   0  0  0  0  0  0  0  0  0  0  0  0
    2.8048   -0.2710   -1.0134 C   0  0  0  0  0  0  0  0  0  0  0  0
    2.0657   -1.3876   -0.8777 N   0  0  0  0  0  0  0  0  0  0  0  0
    1.0482   -1.7098    0.0381 C   0  0  0  0  0  0  0  0  0  0  0  0
    0.9742   -1.0492    1.2165 N   0  0  0  0  0  0  0  0  0  0  0  0
   -0.0777   -1.3194    2.0118 C   0  0  0  0  0  0  0  0  0  0  0  0
   -0.9302   -2.3852    1.7324 C   0  0  0  0  0  0  0  0  0  0  0  0
   -0.8951   -3.0664    0.5664 N   0  0  0  0  0  0  0  0  0  0  0  0
    0.0411   -2.6362   -0.3157 C   0  0  0  0  0  0  0  0  0  0  0  0
   -0.1766   -3.0507   -1.7507 C   0  0  0  0  0  0  0  0  0  0  0  0
   -0.5745   -1.8603   -2.6419 C   0  0  0  0  0  0  0  0  0  0  0  0
   -2.3436   -1.7106   -3.0932 S   0  0  0  0  0  0  0  0  0  0  0  0
   -3.1434   -1.2187   -1.5303 C   0  0  0  0  0  0  0  0  0  0  0  0
   -2.6060   -0.0410   -0.7585 C   0  0  0  0  0  0  0  0  0  0  0  0
   -2.5337   -0.2119    0.5910 N   0  0  0  0  0  0  0  0  0  0  0  0
   -1.9630    0.7470    1.3735 C   0  0  0  0  0  0  0  0  0  0  0  0
   -1.5406    1.9549    0.8299 C   0  0  0  0  0  0  0  0  0  0  0  0
   -1.7147    2.1712   -0.5384 C   0  0  0  0  0  0  0  0  0  0  0  0
   -2.2491    1.1653   -1.3375 C   0  0  0  0  0  0  0  0  0  0  0  0
   -2.3952    1.3874   -2.6498 F   0  0  0  0  0  0  0  0  0  0  0  0
   -1.6797    0.3218    2.8246 C   0  0  2  0  0  0  0  0  0  0  0  0
   -1.7624    1.4696    3.8318 C   0  0  0  0  0  0  0  0  0  0  0  0
   -0.3607   -0.3339    2.9543 N   0  0  0  0  0  0  0  0  0  0  0  0
    3.8568   -0.2144   -1.8339 N   0  0  0  0  0  0  0  0  0  0  0  0
    4.3084    1.0428   -1.7093 N   0  0  0  0  0  0  0  0  0  0  0  0
    4.8792    3.3263   -0.1473 H   0  0  0  0  0  0  0  0  0  0  0  0
    3.1599    3.6650    0.1113 H   0  0  0  0  0  0  0  0  0  0  0  0
    3.8527    3.8151   -1.5118 H   0  0  0  0  0  0  0  0  0  0  0  0
    1.7907    1.2327    0.3052 H   0  0  0  0  0  0  0  0  0  0  0  0
    2.4152   -2.1880   -1.3868 H   0  0  0  0  0  0  0  0  0  0  0  0
   -1.7508   -2.6388    2.3929 H   0  0  0  0  0  0  0  0  0  0  0  0
    0.7591   -3.4882   -2.1204 H   0  0  0  0  0  0  0  0  0  0  0  0
   -0.9225   -3.8528   -1.8060 H   0  0  0  0  0  0  0  0  0  0  0  0
   -0.0708   -2.0018   -3.6057 H   0  0  0  0  0  0  0  0  0  0  0  0
   -0.2282   -0.8935   -2.2669 H   0  0  0  0  0  0  0  0  0  0  0  0
   -4.1913   -1.0020   -1.7678 H   0  0  0  0  0  0  0  0  0  0  0  0
   -3.1573   -2.1046   -0.8862 H   0  0  0  0  0  0  0  0  0  0  0  0
   -1.0602    2.7155    1.4346 H   0  0  0  0  0  0  0  0  0  0  0  0
   -1.4072    3.1069   -0.9949 H   0  0  0  0  0  0  0  0  0  0  0  0
   -2.4580   -0.3985    3.1113 H   0  0  0  0  0  0  0  0  0  0  0  0
   -0.9595    2.2013    3.6890 H   0  0  0  0  0  0  0  0  0  0  0  0
   -2.7204    1.9947    3.7542 H   0  0  0  0  0  0  0  0  0  0  0  0
   -1.6675    1.0874    4.8546 H   0  0  0  0  0  0  0  0  0  0  0  0
    0.4317    0.2991    3.0001 H   0  0  0  0  0  0  0  0  0  0  0  0
    5.1283    1.3119   -2.2428 H   0  0  0  0  0  0  0  0  0  0  0  0
  1  2  1  0
  2  3  2  0
  3  4  1  0
  4  5  1  0
  5  6  1  0
  6  7  2  0
  7  8  1  0
  8  9  2  0
  9 10  1  0
 10 11  2  0
 11 12  1  0
 12 13  1  0
 13 14  1  0
 14 15  1  0
 15 16  1  0
 16 17  1  0
 17 18  2  0
 18 19  1  0
 19 20  2  0
 20 21  1  0
 21 22  1  0
 18 23  1  0
 23 24  1  0
 23 25  1  0
  4 26  2  0
 26 27  1  0
 27  2  1  0
 11  6  1  0
 21 16  2  0
 25  8  1  0
  1 28  1  0
  1 29  1  0
  1 30  1  0
  3 31  1  0
  5 32  1  0
  9 33  1  0
 12 34  1  0
 12 35  1  0
 13 36  1  0
 13 37  1  0
 15 38  1  0
 15 39  1  0
 19 40  1  0
 20 41  1  0
 23 42  1  1
 24 43  1  0
 24 44  1  0
 24 45  1  0
 25 46  1  0
 27 47  1  0
M  END
>  <candidate_id>  (129) 
CAND_f51492fec7

>  <source_generator>  (129) 
macrocycle_linker

>  <parent_mol_id>  (129) 
JAK2_050c16628f

>  <canonical_smiles>  (129) 
Cc1cc(Nc2nc3cnc2CCSCc2nc(ccc2F)[C@H](C)N3)n[nH]1

>  <inchikey>  (129) 
KXWIYDRCFURWIO-NSHDSACASA-N

>  <valid_rdkit>  (129) 
True

>  <unique_flag>  (129) 
True

>  <novel_flag>  (129) 
True

>  <mw>  (129) 
385.472

>  <logp>  (129) 
3.7482

>  <tpsa>  (129) 
91.41

>  <hbd>  (129) 
3

>  <hba>  (129) 
7

>  <rotatable_bonds>  (129) 
2

>  <qed>  (129) 
0.6187

>  <sa_score>  (129) 
4.097

>  <murcko_scaffold>  (129) 
c1cc2nc(c1)CSCCc1ncc(nc1Nc1cc[nH]n1)NC2

>  <max_ring_size>  (129) 
13

>  <has_macrocycle_12_20>  (129) 
True

>  <has_constrained_ring_8_11>  (129) 
False

>  <passes_basic_filters>  (129) 
True

>  <generation_notes>  (129) 
macrocycle_bridge_thioether_path8_ring12

>  <best_score>  (129) 
nan

>  <qed_admet>  (129) 
0.6187

>  <sa_score_admet>  (129) 
4.097

>  <mw_admet>  (129) 
385.472

>  <logp_admet>  (129) 
3.7482

>  <tpsa_admet>  (129) 
91.41

>  <hbd_admet>  (129) 
3

>  <hba_admet>  (129) 
7

>  <rotatable_bonds_admet>  (129) 
2

>  <lipinski_violations>  (129) 
0

>  <veber_pass>  (129) 
True

>  <admet_score>  (129) 
0.828415

>  <synthesis_score>  (129) 
0.655889

>  <safety_proxy_score>  (129) 
1.0

>  <main_risk>  (129) 
no_major_descriptor_risk

>  <pose_score>  (129) 
0.5

>  <pose_decision>  (129) 
nan

>  <contacts_within_4A>  (129) 
nan

>  <hard_clashes_lt_1_8A>  (129) 
nan

>  <smiles>  (129) 
Cc1cc(Nc2nc3cnc2CCSCc2nc(ccc2F)[C@H](C)N3)n[nH]1

>  <docking_score>  (129) 
nan

>  <diversity_cluster>  (129) 
scaffold_60c6f6a0

>  <docking_score_scaled>  (129) 
0.0

>  <novelty_score>  (129) 
1.0

>  <final_weighted_score>  (129) 
0.489066

>  <rank>  (129) 
1740

>  <decision>  (129) 
await_docking

>  <diverse_rank>  (129) 
1099

>  <selection_tier>  (129) 
await_docking

$$$$
CAND_d7042ec02b
     RDKit          3D

 47 50  0  0  0  0  0  0  0  0999 V2000
    7.4541    0.5936   -1.8326 C   0  0  0  0  0  0  0  0  0  0  0  0
    6.0873    0.4255   -1.2795 C   0  0  0  0  0  0  0  0  0  0  0  0
    4.8727    0.7904   -1.8155 C   0  0  0  0  0  0  0  0  0  0  0  0
    3.7676    0.4904   -1.0477 N   0  0  0  0  0  0  0  0  0  0  0  0
    4.1227   -0.0815    0.0816 C   0  0  0  0  0  0  0  0  0  0  0  0
    3.3168   -0.5239    1.0717 N   0  0  0  0  0  0  0  0  0  0  0  0
    1.9609   -0.1972    1.2515 C   0  0  0  0  0  0  0  0  0  0  0  0
    1.1816   -1.0565    1.9976 C   0  0  0  0  0  0  0  0  0  0  0  0
   -0.1375   -0.7117    2.1417 C   0  0  0  0  0  0  0  0  0  0  0  0
   -0.6655    0.3974    1.6248 N   0  0  0  0  0  0  0  0  0  0  0  0
    0.1303    1.1453    0.8616 C   0  0  0  0  0  0  0  0  0  0  0  0
    1.4269    0.8922    0.6747 N   0  0  0  0  0  0  0  0  0  0  0  0
   -0.3881    2.2046    0.1579 N   0  0  0  0  0  0  0  0  0  0  0  0
   -1.8306    2.3141   -0.0301 C   0  0  1  0  0  0  0  0  0  0  0  0
   -2.1406    3.6188   -0.7642 C   0  0  0  0  0  0  0  0  0  0  0  0
   -2.4153    1.1146   -0.7873 C   0  0  0  0  0  0  0  0  0  0  0  0
   -2.0839    0.9404   -2.0872 N   0  0  0  0  0  0  0  0  0  0  0  0
   -2.4625   -0.2286   -2.6468 C   0  0  0  0  0  0  0  0  0  0  0  0
   -3.1315   -1.2184   -1.9666 C   0  0  0  0  0  0  0  0  0  0  0  0
   -3.4446   -2.3748   -2.5630 F   0  0  0  0  0  0  0  0  0  0  0  0
   -3.4467   -0.9573   -0.6505 C   0  0  0  0  0  0  0  0  0  0  0  0
   -3.1307    0.2212   -0.0639 N   0  0  0  0  0  0  0  0  0  0  0  0
   -4.0825   -2.0129    0.2251 C   0  0  0  0  0  0  0  0  0  0  0  0
   -3.1167   -2.7760    1.0362 N   0  0  0  0  0  0  0  0  0  0  0  0
   -3.1769   -2.4690    2.4745 C   0  0  0  0  0  0  0  0  0  0  0  0
   -2.3239   -1.2720    2.9307 C   0  0  0  0  0  0  0  0  0  0  0  0
   -0.9346   -1.6113    2.8174 O   0  0  0  0  0  0  0  0  0  0  0  0
    5.8327   -0.3189    0.2398 S   0  0  0  0  0  0  0  0  0  0  0  0
    8.0711    1.2054   -1.1663 H   0  0  0  0  0  0  0  0  0  0  0  0
    7.4232    1.0892   -2.8086 H   0  0  0  0  0  0  0  0  0  0  0  0
    7.9422   -0.3774   -1.9659 H   0  0  0  0  0  0  0  0  0  0  0  0
    4.7288    1.2796   -2.7712 H   0  0  0  0  0  0  0  0  0  0  0  0
    3.7500   -0.9697    1.8657 H   0  0  0  0  0  0  0  0  0  0  0  0
    1.5693   -1.9677    2.4294 H   0  0  0  0  0  0  0  0  0  0  0  0
    0.2431    2.5222   -0.5641 H   0  0  0  0  0  0  0  0  0  0  0  0
   -2.3198    2.3748    0.9514 H   0  0  0  0  0  0  0  0  0  0  0  0
   -3.2194    3.7407   -0.9114 H   0  0  0  0  0  0  0  0  0  0  0  0
   -1.6614    3.6553   -1.7495 H   0  0  0  0  0  0  0  0  0  0  0  0
   -1.7765    4.4796   -0.1922 H   0  0  0  0  0  0  0  0  0  0  0  0
   -2.1840   -0.3638   -3.6865 H   0  0  0  0  0  0  0  0  0  0  0  0
   -4.6230   -2.7257   -0.4089 H   0  0  0  0  0  0  0  0  0  0  0  0
   -4.8507   -1.5334    0.8446 H   0  0  0  0  0  0  0  0  0  0  0  0
   -2.1686   -2.5848    0.7063 H   0  0  0  0  0  0  0  0  0  0  0  0
   -4.2151   -2.3392    2.8014 H   0  0  0  0  0  0  0  0  0  0  0  0
   -2.8029   -3.3610    2.9918 H   0  0  0  0  0  0  0  0  0  0  0  0
   -2.5131   -1.0981    3.9964 H   0  0  0  0  0  0  0  0  0  0  0  0
   -2.6348   -0.3644    2.4088 H   0  0  0  0  0  0  0  0  0  0  0  0
  1  2  1  0
  2  3  2  0
  3  4  1  0
  4  5  2  0
  5  6  1  0
  6  7  1  0
  7  8  2  0
  8  9  1  0
  9 10  2  0
 10 11  1  0
 11 12  2  0
 11 13  1  0
 13 14  1  0
 14 15  1  0
 14 16  1  0
 16 17  1  0
 17 18  2  0
 18 19  1  0
 19 20  1  0
 19 21  2  0
 21 22  1  0
 21 23  1  0
 23 24  1  0
 24 25  1  0
 25 26  1  0
 26 27  1  0
  5 28  1  0
 28  2  1  0
 12  7  1  0
 22 16  2  0
 27  9  1  0
  1 29  1  0
  1 30  1  0
  1 31  1  0
  3 32  1  0
  6 33  1  0
  8 34  1  0
 13 35  1  0
 14 36  1  1
 15 37  1  0
 15 38  1  0
 15 39  1  0
 18 40  1  0
 23 41  1  0
 23 42  1  0
 24 43  1  0
 25 44  1  0
 25 45  1  0
 26 46  1  0
 26 47  1  0
M  END
>  <candidate_id>  (130) 
CAND_d7042ec02b

>  <source_generator>  (130) 
macrocycle_linker

>  <parent_mol_id>  (130) 
JAK2_eb0f359259

>  <canonical_smiles>  (130) 
Cc1cnc(Nc2cc3nc(n2)N[C@@H](C)c2ncc(F)c(n2)CNCCO3)s1

>  <inchikey>  (130) 
LOAGGVZXDYHUQA-JTQLQIEISA-N

>  <valid_rdkit>  (130) 
True

>  <unique_flag>  (130) 
True

>  <novel_flag>  (130) 
True

>  <mw>  (130) 
402.459

>  <logp>  (130) 
2.5693

>  <tpsa>  (130) 
109.77

>  <hbd>  (130) 
3

>  <hba>  (130) 
10

>  <rotatable_bonds>  (130) 
2

>  <qed>  (130) 
0.5955

>  <sa_score>  (130) 
3.991

>  <murcko_scaffold>  (130) 
c1cc2nc(n1)CNc1nc(Nc3nccs3)cc(n1)OCCNC2

>  <max_ring_size>  (130) 
13

>  <has_macrocycle_12_20>  (130) 
True

>  <has_constrained_ring_8_11>  (130) 
False

>  <passes_basic_filters>  (130) 
True

>  <generation_notes>  (130) 
macrocycle_bridge_aza_path9_ring12

>  <best_score>  (130) 
nan

>  <qed_admet>  (130) 
0.5955

>  <sa_score_admet>  (130) 
3.991

>  <mw_admet>  (130) 
402.459

>  <logp_admet>  (130) 
2.5693

>  <tpsa_admet>  (130) 
109.77

>  <hbd_admet>  (130) 
3

>  <hba_admet>  (130) 
10

>  <rotatable_bonds_admet>  (130) 
2

>  <lipinski_violations>  (130) 
0

>  <veber_pass>  (130) 
True

>  <admet_score>  (130) 
0.817975

>  <synthesis_score>  (130) 
0.667667

>  <safety_proxy_score>  (130) 
1.0

>  <main_risk>  (130) 
no_major_descriptor_risk

>  <pose_score>  (130) 
0.5

>  <pose_decision>  (130) 
nan

>  <contacts_within_4A>  (130) 
nan

>  <hard_clashes_lt_1_8A>  (130) 
nan

>  <smiles>  (130) 
Cc1cnc(Nc2cc3nc(n2)N[C@@H](C)c2ncc(F)c(n2)CNCCO3)s1

>  <docking_score>  (130) 
nan

>  <diversity_cluster>  (130) 
scaffold_8a05456a

>  <docking_score_scaled>  (130) 
0.0

>  <novelty_score>  (130) 
1.0

>  <final_weighted_score>  (130) 
0.488745

>  <rank>  (130) 
1758

>  <decision>  (130) 
await_docking

>  <diverse_rank>  (130) 
1108

>  <selection_tier>  (130) 
await_docking

$$$$
CAND_101875c1e6
     RDKit          3D

 51 55  0  0  0  0  0  0  0  0999 V2000
   -2.4038   -2.2158   -3.4981 N   0  0  0  0  0  0  0  0  0  0  0  0
   -2.5446   -2.5119   -2.3855 C   0  0  0  0  0  0  0  0  0  0  0  0
   -2.7509   -2.8753   -0.9789 C   0  0  0  0  0  0  0  0  0  0  0  0
   -2.1314   -1.8686   -0.0000 C   0  0  2  0  0  0  0  0  0  0  0  0
   -2.5700   -0.3702   -0.1900 C   0  0  0  0  0  0  0  0  0  0  0  0
   -4.0874   -0.1640   -0.1038 C   0  0  0  0  0  0  0  0  0  0  0  0
   -4.3717   -0.1161    1.3861 C   0  0  0  0  0  0  0  0  0  0  0  0
   -3.1904    0.6426    1.9786 C   0  0  0  0  0  0  0  0  0  0  0  0
   -2.0437    0.5496    0.9533 C   0  0  0  0  0  0  0  0  0  0  0  0
   -1.6223    1.9555    0.4791 C   0  0  0  0  0  0  0  0  0  0  0  0
   -0.5648    1.8545   -0.4721 O   0  0  0  0  0  0  0  0  0  0  0  0
    0.2113    3.0454   -0.5578 C   0  0  0  0  0  0  0  0  0  0  0  0
    1.0269    2.9884   -1.7602 N   0  0  0  0  0  0  0  0  0  0  0  0
    2.4844    2.9631   -1.4724 C   0  0  0  0  0  0  0  0  0  0  0  0
    3.0341    1.6483   -0.9242 C   0  0  0  0  0  0  0  0  0  0  0  0
    2.1674    0.6237   -0.8828 N   0  0  0  0  0  0  0  0  0  0  0  0
    2.5252   -0.5461   -0.3077 C   0  0  0  0  0  0  0  0  0  0  0  0
    3.8281   -0.7092    0.1511 C   0  0  0  0  0  0  0  0  0  0  0  0
    4.6187   -1.7144    0.7750 C   0  0  0  0  0  0  0  0  0  0  0  0
    5.8816   -1.1940    0.9709 C   0  0  0  0  0  0  0  0  0  0  0  0
    5.8840    0.0921    0.4941 N   0  0  0  0  0  0  0  0  0  0  0  0
    4.6462    0.4057    0.0019 C   0  0  0  0  0  0  0  0  0  0  0  0
    4.3138    1.6059   -0.5062 N   0  0  0  0  0  0  0  0  0  0  0  0
    1.4401   -1.4664   -0.0754 C   0  0  0  0  0  0  0  0  0  0  0  0
    1.1900   -2.4438    0.9085 C   0  0  0  0  0  0  0  0  0  0  0  0
   -0.0926   -2.8343    0.9287 N   0  0  0  0  0  0  0  0  0  0  0  0
   -0.6729   -2.0349    0.0087 N   0  0  0  0  0  0  0  0  0  0  0  0
    0.2301   -1.3373   -0.7282 C   0  0  0  0  0  0  0  0  0  0  0  0
   -2.3312   -3.8744   -0.8046 H   0  0  0  0  0  0  0  0  0  0  0  0
   -3.8255   -2.9674   -0.7861 H   0  0  0  0  0  0  0  0  0  0  0  0
   -2.4449   -2.1769    1.0077 H   0  0  0  0  0  0  0  0  0  0  0  0
   -2.2236   -0.0154   -1.1670 H   0  0  0  0  0  0  0  0  0  0  0  0
   -4.3532    0.7993   -0.5575 H   0  0  0  0  0  0  0  0  0  0  0  0
   -4.6761   -0.9308   -0.6114 H   0  0  0  0  0  0  0  0  0  0  0  0
   -5.3252    0.3727    1.6079 H   0  0  0  0  0  0  0  0  0  0  0  0
   -4.4160   -1.1296    1.8009 H   0  0  0  0  0  0  0  0  0  0  0  0
   -2.8973    0.2004    2.9373 H   0  0  0  0  0  0  0  0  0  0  0  0
   -3.4712    1.6832    2.1779 H   0  0  0  0  0  0  0  0  0  0  0  0
   -1.1659    0.1048    1.4351 H   0  0  0  0  0  0  0  0  0  0  0  0
   -2.4616    2.4812    0.0100 H   0  0  0  0  0  0  0  0  0  0  0  0
   -1.2915    2.5377    1.3484 H   0  0  0  0  0  0  0  0  0  0  0  0
   -0.4589    3.9081   -0.6434 H   0  0  0  0  0  0  0  0  0  0  0  0
    0.7986    3.1570    0.3612 H   0  0  0  0  0  0  0  0  0  0  0  0
    0.8086    2.0723   -2.1639 H   0  0  0  0  0  0  0  0  0  0  0  0
    2.7518    3.7834   -0.7959 H   0  0  0  0  0  0  0  0  0  0  0  0
    3.0042    3.1507   -2.4189 H   0  0  0  0  0  0  0  0  0  0  0  0
    4.3093   -2.7167    1.0408 H   0  0  0  0  0  0  0  0  0  0  0  0
    6.7745   -1.6259    1.4038 H   0  0  0  0  0  0  0  0  0  0  0  0
    6.6641    0.7335    0.5013 H   0  0  0  0  0  0  0  0  0  0  0  0
    1.8619   -2.8464    1.6543 H   0  0  0  0  0  0  0  0  0  0  0  0
   -0.0662   -0.6732   -1.5303 H   0  0  0  0  0  0  0  0  0  0  0  0
  1  2  3  0
  2  3  1  0
  3  4  1  0
  4  5  1  0
  5  6  1  0
  6  7  1  0
  7  8  1  0
  8  9  1  0
  9 10  1  0
 10 11  1  0
 11 12  1  0
 12 13  1  0
 13 14  1  0
 14 15  1  0
 15 16  1  0
 16 17  2  0
 17 18  1  0
 18 19  1  0
 19 20  2  0
 20 21  1  0
 21 22  1  0
 22 23  1  0
 17 24  1  0
 24 25  1  0
 25 26  2  0
 26 27  1  0
 27 28  1  0
 27  4  1  0
  9  5  1  0
 23 15  2  0
 28 24  2  0
 22 18  2  0
  3 29  1  0
  3 30  1  0
  4 31  1  1
  5 32  1  0
  6 33  1  0
  6 34  1  0
  7 35  1  0
  7 36  1  0
  8 37  1  0
  8 38  1  0
  9 39  1  0
 10 40  1  0
 10 41  1  0
 12 42  1  0
 12 43  1  0
 13 44  1  0
 14 45  1  0
 14 46  1  0
 19 47  1  0
 20 48  1  0
 21 49  1  0
 25 50  1  0
 28 51  1  0
M  END
>  <candidate_id>  (131) 
CAND_101875c1e6

>  <source_generator>  (131) 
macrocycle_linker

>  <parent_mol_id>  (131) 
JAK2_0363b39a60

>  <canonical_smiles>  (131) 
N#CC[C@@H]1C2CCCC2COCNCc2nc(c3cc[nH]c3n2)-c2cnn1c2

>  <inchikey>  (131) 
ROZNGROZQMHHMM-PUJMQQBBSA-N

>  <valid_rdkit>  (131) 
True

>  <unique_flag>  (131) 
True

>  <novel_flag>  (131) 
True

>  <mw>  (131) 
377.452

>  <logp>  (131) 
2.7698

>  <tpsa>  (131) 
104.44

>  <hbd>  (131) 
2

>  <hba>  (131) 
6

>  <rotatable_bonds>  (131) 
1

>  <qed>  (131) 
0.6756

>  <sa_score>  (131) 
4.428

>  <murcko_scaffold>  (131) 
c1cc2c3nc(nc2[nH]1)CNCOCC1CCCC1Cn1cc-3cn1

>  <max_ring_size>  (131) 
14

>  <has_macrocycle_12_20>  (131) 
True

>  <has_constrained_ring_8_11>  (131) 
False

>  <passes_basic_filters>  (131) 
True

>  <generation_notes>  (131) 
macrocycle_bridge_oxa_aza_path8_ring13

>  <best_score>  (131) 
nan

>  <qed_admet>  (131) 
0.6756

>  <sa_score_admet>  (131) 
4.428

>  <mw_admet>  (131) 
377.452

>  <logp_admet>  (131) 
2.7698

>  <tpsa_admet>  (131) 
104.44

>  <hbd_admet>  (131) 
2

>  <hba_admet>  (131) 
6

>  <rotatable_bonds_admet>  (131) 
1

>  <lipinski_violations>  (131) 
0

>  <veber_pass>  (131) 
True

>  <admet_score>  (131) 
0.85402

>  <synthesis_score>  (131) 
0.619111

>  <safety_proxy_score>  (131) 
1.0

>  <main_risk>  (131) 
no_major_descriptor_risk

>  <pose_score>  (131) 
0.5

>  <pose_decision>  (131) 
nan

>  <contacts_within_4A>  (131) 
nan

>  <hard_clashes_lt_1_8A>  (131) 
nan

>  <smiles>  (131) 
N#CC[C@@H]1C2CCCC2COCNCc2nc(c3cc[nH]c3n2)-c2cnn1c2

>  <docking_score>  (131) 
nan

>  <diversity_cluster>  (131) 
scaffold_9c383230

>  <docking_score_scaled>  (131) 
0.0

>  <novelty_score>  (131) 
1.0

>  <final_weighted_score>  (131) 
0.488671

>  <rank>  (131) 
1766

>  <decision>  (131) 
await_docking

>  <diverse_rank>  (131) 
1114

>  <selection_tier>  (131) 
await_docking

$$$$
CAND_bb383316b2
     RDKit          3D

 47 50  0  0  0  0  0  0  0  0999 V2000
    1.0363    5.5770   -1.8052 C   0  0  0  0  0  0  0  0  0  0  0  0
   -0.1698    4.9801   -2.2720 O   0  0  0  0  0  0  0  0  0  0  0  0
   -0.3354    3.6763   -1.8398 C   0  0  0  0  0  0  0  0  0  0  0  0
   -1.4895    3.0538   -2.2494 C   0  0  0  0  0  0  0  0  0  0  0  0
   -1.6480    1.7532   -1.8381 C   0  0  0  0  0  0  0  0  0  0  0  0
   -0.7273    1.1691   -1.0528 N   0  0  0  0  0  0  0  0  0  0  0  0
    0.3619    1.8480   -0.6905 C   0  0  0  0  0  0  0  0  0  0  0  0
    0.6049    3.1002   -1.0741 N   0  0  0  0  0  0  0  0  0  0  0  0
    1.2867    1.2529    0.1145 N   0  0  0  0  0  0  0  0  0  0  0  0
    1.0060    0.0195    0.8525 C   0  0  2  0  0  0  0  0  0  0  0  0
    1.8437    0.0034    2.1423 C   0  0  0  0  0  0  0  0  0  0  0  0
    3.1220    0.4600    2.0721 N   0  0  0  0  0  0  0  0  0  0  0  0
    3.8400    0.4294    3.2160 C   0  0  0  0  0  0  0  0  0  0  0  0
    3.3398   -0.0317    4.4073 C   0  0  0  0  0  0  0  0  0  0  0  0
    4.0779   -0.0531    5.5226 F   0  0  0  0  0  0  0  0  0  0  0  0
    2.0418   -0.4763    4.3859 C   0  0  0  0  0  0  0  0  0  0  0  0
    1.2740   -0.4766    3.2738 N   0  0  0  0  0  0  0  0  0  0  0  0
    1.3395   -1.2131   -0.0114 C   0  0  0  0  0  0  0  0  0  0  0  0
    1.0045   -2.5643    0.6405 C   0  0  0  0  0  0  0  0  0  0  0  0
   -0.4195   -2.6637    0.9407 N   0  0  0  0  0  0  0  0  0  0  0  0
   -1.1160   -3.7106    0.1877 C   0  0  0  0  0  0  0  0  0  0  0  0
   -2.6471   -3.5003    0.1908 C   0  0  0  0  0  0  0  0  0  0  0  0
   -3.0436   -2.3686   -0.7059 C   0  0  0  0  0  0  0  0  0  0  0  0
   -3.4791   -2.3799   -2.0149 C   0  0  0  0  0  0  0  0  0  0  0  0
   -3.5527   -1.1428   -2.6304 N   0  0  0  0  0  0  0  0  0  0  0  0
   -3.0946   -0.2137   -1.8151 C   0  0  0  0  0  0  0  0  0  0  0  0
   -2.9604   -0.7437   -0.1745 S   0  0  0  0  0  0  0  0  0  0  0  0
   -2.7956    1.0371   -2.2410 N   0  0  0  0  0  0  0  0  0  0  0  0
    1.9157    5.0455   -2.1852 H   0  0  0  0  0  0  0  0  0  0  0  0
    1.0538    5.6358   -0.7111 H   0  0  0  0  0  0  0  0  0  0  0  0
    1.0706    6.5990   -2.1934 H   0  0  0  0  0  0  0  0  0  0  0  0
   -2.2147    3.5646   -2.8654 H   0  0  0  0  0  0  0  0  0  0  0  0
    2.1004    1.7949    0.3629 H   0  0  0  0  0  0  0  0  0  0  0  0
   -0.0459    0.0084    1.1629 H   0  0  0  0  0  0  0  0  0  0  0  0
    4.8573    0.7988    3.1465 H   0  0  0  0  0  0  0  0  0  0  0  0
    1.5690   -0.8572    5.2846 H   0  0  0  0  0  0  0  0  0  0  0  0
    0.8095   -1.1478   -0.9705 H   0  0  0  0  0  0  0  0  0  0  0  0
    2.4090   -1.2093   -0.2607 H   0  0  0  0  0  0  0  0  0  0  0  0
    1.5796   -2.6958    1.5635 H   0  0  0  0  0  0  0  0  0  0  0  0
    1.3357   -3.3706   -0.0262 H   0  0  0  0  0  0  0  0  0  0  0  0
   -0.5714   -2.7809    1.9426 H   0  0  0  0  0  0  0  0  0  0  0  0
   -0.8840   -4.6843    0.6353 H   0  0  0  0  0  0  0  0  0  0  0  0
   -0.7663   -3.7327   -0.8526 H   0  0  0  0  0  0  0  0  0  0  0  0
   -3.0138   -3.3405    1.2123 H   0  0  0  0  0  0  0  0  0  0  0  0
   -3.1243   -4.4201   -0.1700 H   0  0  0  0  0  0  0  0  0  0  0  0
   -3.7012   -3.2675   -2.5943 H   0  0  0  0  0  0  0  0  0  0  0  0
   -3.0792    1.2381   -3.1899 H   0  0  0  0  0  0  0  0  0  0  0  0
  1  2  1  0
  2  3  1  0
  3  4  2  0
  4  5  1  0
  5  6  2  0
  6  7  1  0
  7  8  2  0
  7  9  1  0
  9 10  1  0
 10 11  1  0
 11 12  2  0
 12 13  1  0
 13 14  2  0
 14 15  1  0
 14 16  1  0
 16 17  2  0
 10 18  1  0
 18 19  1  0
 19 20  1  0
 20 21  1  0
 21 22  1  0
 22 23  1  0
 23 24  2  0
 24 25  1  0
 25 26  2  0
 26 27  1  0
 26 28  1  0
  8  3  1  0
 17 11  1  0
 27 23  1  0
 28  5  1  0
  1 29  1  0
  1 30  1  0
  1 31  1  0
  4 32  1  0
  9 33  1  0
 10 34  1  1
 13 35  1  0
 16 36  1  0
 18 37  1  0
 18 38  1  0
 19 39  1  0
 19 40  1  0
 20 41  1  0
 21 42  1  0
 21 43  1  0
 22 44  1  0
 22 45  1  0
 24 46  1  0
 28 47  1  0
M  END
>  <candidate_id>  (132) 
CAND_bb383316b2

>  <source_generator>  (132) 
macrocycle_linker

>  <parent_mol_id>  (132) 
JAK2_eb0f359259

>  <canonical_smiles>  (132) 
COc1cc2nc(n1)N[C@H](c1ncc(F)cn1)CCNCCc1cnc(s1)N2

>  <inchikey>  (132) 
VUGKLBCOFDWJLK-LBPRGKRZSA-N

>  <valid_rdkit>  (132) 
True

>  <unique_flag>  (132) 
True

>  <novel_flag>  (132) 
True

>  <mw>  (132) 
402.459

>  <logp>  (132) 
2.3034

>  <tpsa>  (132) 
109.77

>  <hbd>  (132) 
3

>  <hba>  (132) 
10

>  <rotatable_bonds>  (132) 
2

>  <qed>  (132) 
0.5946

>  <sa_score>  (132) 
3.991

>  <murcko_scaffold>  (132) 
c1cnc([C@@H]2CCNCCc3cnc(s3)Nc3ccnc(n3)N2)nc1

>  <max_ring_size>  (132) 
14

>  <has_macrocycle_12_20>  (132) 
True

>  <has_constrained_ring_8_11>  (132) 
False

>  <passes_basic_filters>  (132) 
True

>  <generation_notes>  (132) 
macrocycle_bridge_aza_path10_ring13

>  <best_score>  (132) 
nan

>  <qed_admet>  (132) 
0.5946

>  <sa_score_admet>  (132) 
3.991

>  <mw_admet>  (132) 
402.459

>  <logp_admet>  (132) 
2.3034

>  <tpsa_admet>  (132) 
109.77

>  <hbd_admet>  (132) 
3

>  <hba_admet>  (132) 
10

>  <rotatable_bonds_admet>  (132) 
2

>  <lipinski_violations>  (132) 
0

>  <veber_pass>  (132) 
True

>  <admet_score>  (132) 
0.81757

>  <synthesis_score>  (132) 
0.667667

>  <safety_proxy_score>  (132) 
1.0

>  <main_risk>  (132) 
no_major_descriptor_risk

>  <pose_score>  (132) 
0.5

>  <pose_decision>  (132) 
nan

>  <contacts_within_4A>  (132) 
nan

>  <hard_clashes_lt_1_8A>  (132) 
nan

>  <smiles>  (132) 
COc1cc2nc(n1)N[C@H](c1ncc(F)cn1)CCNCCc1cnc(s1)N2

>  <docking_score>  (132) 
nan

>  <diversity_cluster>  (132) 
scaffold_2a7e3362

>  <docking_score_scaled>  (132) 
0.0

>  <novelty_score>  (132) 
1.0

>  <final_weighted_score>  (132) 
0.488664

>  <rank>  (132) 
1767

>  <decision>  (132) 
await_docking

>  <diverse_rank>  (132) 
1115

>  <selection_tier>  (132) 
await_docking

$$$$
CAND_81820b935b
     RDKit          3D

 61 66  0  0  0  0  0  0  0  0999 V2000
   -7.3023   -2.0350    2.3887 N   0  0  0  0  0  0  0  0  0  0  0  0
   -6.3884   -1.3238    2.3235 C   0  0  0  0  0  0  0  0  0  0  0  0
   -5.2426   -0.4521    2.2458 C   0  0  0  0  0  0  0  0  0  0  0  0
   -4.0517   -1.0001    1.4345 C   0  0  0  0  0  0  0  0  0  0  0  0
   -4.0172    0.2874    0.7788 N   0  0  0  0  0  0  0  0  0  0  0  0
   -3.1343    0.9507   -0.0351 C   0  0  0  0  0  0  0  0  0  0  0  0
   -3.3970    2.0843   -0.4341 O   0  0  0  0  0  0  0  0  0  0  0  0
   -1.8267    0.1873   -0.3756 C   0  0  2  0  0  0  0  0  0  0  0  0
   -0.6529    1.0502   -0.4306 N   0  0  0  0  0  0  0  0  0  0  0  0
   -0.4285    2.0415   -1.3540 C   0  0  0  0  0  0  0  0  0  0  0  0
   -1.1585    2.3023   -2.2996 O   0  0  0  0  0  0  0  0  0  0  0  0
    0.7676    2.8246   -1.0749 C   0  0  0  0  0  0  0  0  0  0  0  0
    0.9263    4.1638   -1.4112 C   0  0  0  0  0  0  0  0  0  0  0  0
    2.1390    4.5930   -0.9369 N   0  0  0  0  0  0  0  0  0  0  0  0
    2.7843    3.5529   -0.3321 C   0  0  0  0  0  0  0  0  0  0  0  0
    3.9965    3.6119    0.2471 N   0  0  0  0  0  0  0  0  0  0  0  0
    4.3750    2.3823    0.6853 C   0  0  0  0  0  0  0  0  0  0  0  0
    3.6312    1.1965    0.5655 C   0  0  0  0  0  0  0  0  0  0  0  0
    2.3709    1.2154    0.0453 N   0  0  0  0  0  0  0  0  0  0  0  0
    1.9726    2.4291   -0.4294 C   0  0  0  0  0  0  0  0  0  0  0  0
    4.2157   -0.1694    0.9673 C   0  0  0  0  0  0  0  0  0  0  0  0
    3.4582   -0.8910    2.0818 C   0  0  0  0  0  0  0  0  0  0  0  0
    2.7245   -2.1714    1.6569 C   0  0  0  0  0  0  0  0  0  0  0  0
    1.6434   -1.9094    0.6124 C   0  0  0  0  0  0  0  0  0  0  0  0
    0.8778   -3.4695    0.0540 S   0  0  0  0  0  0  0  0  0  0  0  0
   -0.7431   -2.8356   -0.4932 C   0  0  0  0  0  0  0  0  0  0  0  0
   -0.6703   -1.7676   -1.5924 C   0  0  0  0  0  0  0  0  0  0  0  0
   -1.8684   -0.8130   -1.5457 C   0  0  0  0  0  0  0  0  0  0  0  0
   -3.1898   -1.3745   -2.0574 C   0  0  0  0  0  0  0  0  0  0  0  0
   -2.4470   -0.3658   -2.8774 C   0  0  0  0  0  0  0  0  0  0  0  0
    4.8645   -0.9752   -0.1634 C   0  0  0  0  0  0  0  0  0  0  0  0
    5.7258   -0.4036    0.9102 C   0  0  0  0  0  0  0  0  0  0  0  0
   -5.3410    0.6874    1.2178 C   0  0  0  0  0  0  0  0  0  0  0  0
   -4.9310   -0.0860    3.2341 H   0  0  0  0  0  0  0  0  0  0  0  0
   -4.2635   -1.8227    0.7452 H   0  0  0  0  0  0  0  0  0  0  0  0
   -3.1656   -1.2291    2.0320 H   0  0  0  0  0  0  0  0  0  0  0  0
   -1.6245   -0.4027    0.5245 H   0  0  0  0  0  0  0  0  0  0  0  0
    0.0738    0.9057    0.2595 H   0  0  0  0  0  0  0  0  0  0  0  0
    0.2559    4.8419   -1.9251 H   0  0  0  0  0  0  0  0  0  0  0  0
    2.5197    5.5253   -1.0176 H   0  0  0  0  0  0  0  0  0  0  0  0
    5.3602    2.3678    1.1422 H   0  0  0  0  0  0  0  0  0  0  0  0
    2.7358   -0.2061    2.5448 H   0  0  0  0  0  0  0  0  0  0  0  0
    4.1634   -1.1510    2.8817 H   0  0  0  0  0  0  0  0  0  0  0  0
    2.2628   -2.6087    2.5519 H   0  0  0  0  0  0  0  0  0  0  0  0
    3.4463   -2.9112    1.2931 H   0  0  0  0  0  0  0  0  0  0  0  0
    2.0671   -1.4281   -0.2709 H   0  0  0  0  0  0  0  0  0  0  0  0
    0.8763   -1.2579    1.0418 H   0  0  0  0  0  0  0  0  0  0  0  0
   -1.2638   -2.4826    0.4006 H   0  0  0  0  0  0  0  0  0  0  0  0
   -1.3258   -3.6880   -0.8604 H   0  0  0  0  0  0  0  0  0  0  0  0
   -0.6252   -2.2745   -2.5655 H   0  0  0  0  0  0  0  0  0  0  0  0
    0.2416   -1.1671   -1.5353 H   0  0  0  0  0  0  0  0  0  0  0  0
   -3.2197   -2.3927   -2.4332 H   0  0  0  0  0  0  0  0  0  0  0  0
   -4.1373   -1.0519   -1.6435 H   0  0  0  0  0  0  0  0  0  0  0  0
   -2.8821    0.6256   -2.9642 H   0  0  0  0  0  0  0  0  0  0  0  0
   -1.9649   -0.6929   -3.7923 H   0  0  0  0  0  0  0  0  0  0  0  0
    4.9133   -0.5261   -1.1514 H   0  0  0  0  0  0  0  0  0  0  0  0
    4.7696   -2.0532   -0.2035 H   0  0  0  0  0  0  0  0  0  0  0  0
    6.1737   -1.0991    1.6134 H   0  0  0  0  0  0  0  0  0  0  0  0
    6.4044    0.3898    0.6190 H   0  0  0  0  0  0  0  0  0  0  0  0
   -6.0908    0.5790    0.4277 H   0  0  0  0  0  0  0  0  0  0  0  0
   -5.3836    1.6931    1.6442 H   0  0  0  0  0  0  0  0  0  0  0  0
  1  2  3  0
  2  3  1  0
  3  4  1  0
  4  5  1  0
  5  6  1  0
  6  7  2  0
  6  8  1  0
  8  9  1  0
  9 10  1  0
 10 11  2  0
 10 12  1  0
 12 13  2  0
 13 14  1  0
 14 15  1  0
 15 16  2  0
 16 17  1  0
 17 18  2  0
 18 19  1  0
 19 20  2  0
 18 21  1  0
 21 22  1  0
 22 23  1  0
 23 24  1  0
 24 25  1  0
 25 26  1  0
 26 27  1  0
 27 28  1  0
 28 29  1  0
 29 30  1  0
 21 31  1  0
 31 32  1  0
  5 33  1  0
 33  3  1  0
 28  8  1  0
 20 12  1  0
 32 21  1  0
 20 15  1  0
 30 28  1  0
  3 34  1  0
  4 35  1  0
  4 36  1  0
  8 37  1  1
  9 38  1  0
 13 39  1  0
 14 40  1  0
 17 41  1  0
 22 42  1  0
 22 43  1  0
 23 44  1  0
 23 45  1  0
 24 46  1  0
 24 47  1  0
 26 48  1  0
 26 49  1  0
 27 50  1  0
 27 51  1  0
 29 52  1  0
 29 53  1  0
 30 54  1  0
 30 55  1  0
 31 56  1  0
 31 57  1  0
 32 58  1  0
 32 59  1  0
 33 60  1  0
 33 61  1  0
M  END
>  <candidate_id>  (133) 
CAND_81820b935b

>  <source_generator>  (133) 
macrocycle_linker

>  <parent_mol_id>  (133) 
JAK2_c385760536

>  <canonical_smiles>  (133) 
N#CC1CN(C(=O)[C@@H]2NC(=O)c3c[nH]c4ncc(nc34)C3(CCCSCCC24CC4)CC3)C1

>  <inchikey>  (133) 
GCFCHGVINQOWBF-IBGZPJMESA-N

>  <valid_rdkit>  (133) 
True

>  <unique_flag>  (133) 
True

>  <novel_flag>  (133) 
True

>  <mw>  (133) 
464.595

>  <logp>  (133) 
2.7672

>  <tpsa>  (133) 
114.77

>  <hbd>  (133) 
2

>  <hba>  (133) 
6

>  <rotatable_bonds>  (133) 
1

>  <qed>  (133) 
0.6707

>  <sa_score>  (133) 
4.412

>  <murcko_scaffold>  (133) 
O=C1N[C@@H](C(=O)N2CCC2)C2(CCSCCCC3(CC3)c3cnc4[nH]cc1c4n3)CC2

>  <max_ring_size>  (133) 
15

>  <has_macrocycle_12_20>  (133) 
True

>  <has_constrained_ring_8_11>  (133) 
False

>  <passes_basic_filters>  (133) 
True

>  <generation_notes>  (133) 
macrocycle_bridge_thioether_path8_ring14

>  <best_score>  (133) 
nan

>  <qed_admet>  (133) 
0.6707

>  <sa_score_admet>  (133) 
4.412

>  <mw_admet>  (133) 
464.595

>  <logp_admet>  (133) 
2.7672

>  <tpsa_admet>  (133) 
114.77

>  <hbd_admet>  (133) 
2

>  <hba_admet>  (133) 
6

>  <rotatable_bonds_admet>  (133) 
1

>  <lipinski_violations>  (133) 
0

>  <veber_pass>  (133) 
True

>  <admet_score>  (133) 
0.851815

>  <synthesis_score>  (133) 
0.620889

>  <safety_proxy_score>  (133) 
1.0

>  <main_risk>  (133) 
no_major_descriptor_risk

>  <pose_score>  (133) 
0.5

>  <pose_decision>  (133) 
nan

>  <contacts_within_4A>  (133) 
nan

>  <hard_clashes_lt_1_8A>  (133) 
nan

>  <smiles>  (133) 
N#CC1CN(C(=O)[C@@H]2NC(=O)c3c[nH]c4ncc(nc34)C3(CCCSCCC24CC4)CC3)C1

>  <docking_score>  (133) 
nan

>  <diversity_cluster>  (133) 
scaffold_c6e0f3f4

>  <docking_score_scaled>  (133) 
0.0

>  <novelty_score>  (133) 
1.0

>  <final_weighted_score>  (133) 
0.488496

>  <rank>  (133) 
1793

>  <decision>  (133) 
await_docking

>  <diverse_rank>  (133) 
1125

>  <selection_tier>  (133) 
await_docking

$$$$
CAND_472476eeb3
     RDKit          3D

 60 63  0  0  0  0  0  0  0  0999 V2000
   -4.5144    2.9028    3.6393 N   0  0  0  0  0  0  0  0  0  0  0  0
   -3.8997    1.7735    3.6681 C   0  0  0  0  0  0  0  0  0  0  0  0
   -2.5784    1.7615    3.3359 N   0  0  0  0  0  0  0  0  0  0  0  0
   -2.3307    1.6855    2.0673 C   0  0  0  0  0  0  0  0  0  0  0  0
   -0.9382    1.6340    1.5719 C   0  0  0  0  0  0  0  0  0  0  0  0
   -0.5565    1.6060    0.2802 C   0  0  0  0  0  0  0  0  0  0  0  0
    0.8781    1.5425   -0.0146 C   0  0  0  0  0  0  0  0  0  0  0  0
    1.5200    2.6220   -0.4834 C   0  0  0  0  0  0  0  0  0  0  0  0
    2.9813    2.6405   -0.7954 C   0  0  0  0  0  0  0  0  0  0  0  0
    3.7098    1.4033   -0.4736 N   0  0  0  0  0  0  0  0  0  0  0  0
    5.0923    1.5296   -0.6717 C   0  0  0  0  0  0  0  0  0  0  0  0
    5.5785    2.5589   -1.1611 O   0  0  0  0  0  0  0  0  0  0  0  0
    6.0433    0.4109   -0.3056 C   0  0  0  0  0  0  0  0  0  0  0  0
    6.1739   -0.6160   -1.4254 C   0  0  0  0  0  0  0  0  0  0  0  0
    4.8546   -1.1988   -1.9331 C   0  0  0  0  0  0  0  0  0  0  0  0
    4.0862   -1.8782   -0.8948 N   0  0  0  0  0  0  0  0  0  0  0  0
    3.6222   -1.0026    0.2013 C   0  0  0  0  0  3  0  0  0  0  0  0
    2.9952    0.2822   -0.0348 C   0  0  0  0  0  0  0  0  0  0  0  0
    1.6691    0.3470    0.1884 C   0  0  0  0  0  0  0  0  0  0  0  0
   -1.4685    1.6485   -0.9339 C   0  0  0  0  0  0  0  0  0  0  0  0
   -1.3593    0.4326   -1.8641 C   0  0  0  0  0  0  0  0  0  0  0  0
   -1.7458   -0.7493   -1.1652 O   0  0  0  0  0  0  0  0  0  0  0  0
   -1.9829   -1.8459   -2.0537 C   0  0  0  0  0  0  0  0  0  0  0  0
   -2.4076   -3.1065   -1.2816 C   0  0  0  0  0  0  0  0  0  0  0  0
   -3.7354   -2.9601   -0.6915 N   0  0  0  0  0  0  0  0  0  0  0  0
   -3.9681   -2.2874    0.4956 C   0  0  0  0  0  0  0  0  0  0  0  0
   -3.0209   -2.1878    1.5192 C   0  0  0  0  0  0  0  0  0  0  0  0
   -3.2698   -1.4340    2.6704 C   0  0  0  0  0  0  0  0  0  0  0  0
   -4.4678   -0.7345    2.8066 C   0  0  0  0  0  0  0  0  0  0  0  0
   -5.4412   -0.8562    1.8159 C   0  0  0  0  0  0  0  0  0  0  0  0
   -5.1924   -1.6315    0.6777 C   0  0  0  0  0  0  0  0  0  0  0  0
   -4.7359    0.3359    4.1990 S   0  0  0  0  0  0  0  0  0  0  0  0
   -3.8089    3.5954    3.3735 H   0  0  0  0  0  0  0  0  0  0  0  0
   -3.1384    1.6479    1.3179 H   0  0  0  0  0  0  0  0  0  0  0  0
   -0.1948    1.6153    2.3662 H   0  0  0  0  0  0  0  0  0  0  0  0
    0.9888    3.5555   -0.6480 H   0  0  0  0  0  0  0  0  0  0  0  0
    3.4451    3.4655   -0.2396 H   0  0  0  0  0  0  0  0  0  0  0  0
    3.1170    2.8444   -1.8651 H   0  0  0  0  0  0  0  0  0  0  0  0
    7.0298    0.8647   -0.1402 H   0  0  0  0  0  0  0  0  0  0  0  0
    5.7876   -0.0298    0.6608 H   0  0  0  0  0  0  0  0  0  0  0  0
    6.6841   -0.1483   -2.2774 H   0  0  0  0  0  0  0  0  0  0  0  0
    6.8282   -1.4277   -1.0833 H   0  0  0  0  0  0  0  0  0  0  0  0
    4.2535   -0.4402   -2.4481 H   0  0  0  0  0  0  0  0  0  0  0  0
    5.0987   -1.9434   -2.7010 H   0  0  0  0  0  0  0  0  0  0  0  0
    3.2893   -2.3396   -1.3359 H   0  0  0  0  0  0  0  0  0  0  0  0
    3.4251   -1.4719    1.1649 H   0  0  0  0  0  0  0  0  0  0  0  0
    1.1193   -0.5308    0.5246 H   0  0  0  0  0  0  0  0  0  0  0  0
   -1.2465    2.5539   -1.5131 H   0  0  0  0  0  0  0  0  0  0  0  0
   -2.5154    1.7407   -0.6319 H   0  0  0  0  0  0  0  0  0  0  0  0
   -2.0295    0.5932   -2.7175 H   0  0  0  0  0  0  0  0  0  0  0  0
   -0.3419    0.3081   -2.2507 H   0  0  0  0  0  0  0  0  0  0  0  0
   -2.7665   -1.5704   -2.7697 H   0  0  0  0  0  0  0  0  0  0  0  0
   -1.0595   -2.0575   -2.6049 H   0  0  0  0  0  0  0  0  0  0  0  0
   -2.4555   -3.9396   -1.9922 H   0  0  0  0  0  0  0  0  0  0  0  0
   -1.6553   -3.3774   -0.5349 H   0  0  0  0  0  0  0  0  0  0  0  0
   -4.5275   -3.1022   -1.3064 H   0  0  0  0  0  0  0  0  0  0  0  0
   -2.0642   -2.6939    1.4434 H   0  0  0  0  0  0  0  0  0  0  0  0
   -2.5020   -1.3708    3.4380 H   0  0  0  0  0  0  0  0  0  0  0  0
   -6.3912   -0.3349    1.9068 H   0  0  0  0  0  0  0  0  0  0  0  0
   -5.9605   -1.6894   -0.0893 H   0  0  0  0  0  0  0  0  0  0  0  0
  1  2  2  3
  2  3  1  0
  3  4  2  3
  4  5  1  0
  5  6  2  3
  6  7  1  0
  7  8  2  0
  8  9  1  0
  9 10  1  0
 10 11  1  0
 11 12  2  0
 11 13  1  0
 13 14  1  0
 14 15  1  0
 15 16  1  0
 16 17  1  0
 17 18  1  0
 18 19  2  0
  6 20  1  0
 20 21  1  0
 21 22  1  0
 22 23  1  0
 23 24  1  0
 24 25  1  0
 25 26  1  0
 26 27  2  0
 27 28  1  0
 28 29  2  0
 29 30  1  0
 30 31  2  0
 29 32  1  0
 32  2  1  0
 19  7  1  0
 31 26  1  0
 18 10  1  0
  1 33  1  0
  4 34  1  0
  5 35  1  0
  8 36  1  0
  9 37  1  0
  9 38  1  0
 13 39  1  0
 13 40  1  0
 14 41  1  0
 14 42  1  0
 15 43  1  0
 15 44  1  0
 16 45  1  0
 17 46  1  0
 19 47  1  0
 20 48  1  0
 20 49  1  0
 21 50  1  0
 21 51  1  0
 23 52  1  0
 23 53  1  0
 24 54  1  0
 24 55  1  0
 25 56  1  0
 27 57  1  0
 28 58  1  0
 30 59  1  0
 31 60  1  0
M  RAD  1  17   2
M  END
>  <candidate_id>  (134) 
CAND_472476eeb3

>  <source_generator>  (134) 
selfies

>  <parent_mol_id>  (134) 
JAK2_1509a7bf44

>  <canonical_smiles>  (134) 
N=C1N=CC=C(C2=CCN3C(=O)CCCN[CH]C3=C2)CCOCCNc2ccc(cc2)S1

>  <inchikey>  (134) 
LWZAZBWZEKJMKB-UHFFFAOYSA-N

>  <valid_rdkit>  (134) 
True

>  <unique_flag>  (134) 
True

>  <novel_flag>  (134) 
True

>  <mw>  (134) 
450.588

>  <logp>  (134) 
3.7406

>  <tpsa>  (134) 
89.81

>  <hbd>  (134) 
3

>  <hba>  (134) 
6

>  <rotatable_bonds>  (134) 
1

>  <qed>  (134) 
0.6065

>  <sa_score>  (134) 
4.084

>  <murcko_scaffold>  (134) 
N=C1N=CC=C(C2=CCN3C(=O)CCCN[CH]C3=C2)CCOCCNc2ccc(cc2)S1

>  <max_ring_size>  (134) 
16

>  <has_macrocycle_12_20>  (134) 
True

>  <has_constrained_ring_8_11>  (134) 
False

>  <passes_basic_filters>  (134) 
True

>  <generation_notes>  (134) 
selfies_token_mutation

>  <best_score>  (134) 
nan

>  <qed_admet>  (134) 
0.6065

>  <sa_score_admet>  (134) 
4.084

>  <mw_admet>  (134) 
450.588

>  <logp_admet>  (134) 
3.7406

>  <tpsa_admet>  (134) 
89.81

>  <hbd_admet>  (134) 
3

>  <hba_admet>  (134) 
6

>  <rotatable_bonds_admet>  (134) 
1

>  <lipinski_violations>  (134) 
0

>  <veber_pass>  (134) 
True

>  <admet_score>  (134) 
0.822925

>  <synthesis_score>  (134) 
0.657333

>  <safety_proxy_score>  (134) 
1.0

>  <main_risk>  (134) 
no_major_descriptor_risk

>  <pose_score>  (134) 
0.5

>  <pose_decision>  (134) 
nan

>  <contacts_within_4A>  (134) 
nan

>  <hard_clashes_lt_1_8A>  (134) 
nan

>  <smiles>  (134) 
N=C1N=CC=C(C2=CCN3C(=O)CCCN[CH]C3=C2)CCOCCNc2ccc(cc2)S1

>  <docking_score>  (134) 
nan

>  <diversity_cluster>  (134) 
scaffold_472476ee

>  <docking_score_scaled>  (134) 
0.0

>  <novelty_score>  (134) 
1.0

>  <final_weighted_score>  (134) 
0.488185

>  <rank>  (134) 
1804

>  <decision>  (134) 
await_docking

>  <diverse_rank>  (134) 
1131

>  <selection_tier>  (134) 
await_docking

$$$$
CAND_689b77b5c8
     RDKit          3D

 46 49  0  0  0  0  0  0  0  0999 V2000
    7.2620    0.0200    2.1169 F   0  0  0  0  0  0  0  0  0  0  0  0
    6.0018   -0.0252    1.6727 C   0  0  0  0  0  0  0  0  0  0  0  0
    5.7053   -0.2524    0.3524 C   0  0  0  0  0  0  0  0  0  0  0  0
    4.4429   -0.3038   -0.1269 N   0  0  0  0  0  0  0  0  0  0  0  0
    3.4449   -0.1124    0.7748 C   0  0  0  0  0  0  0  0  0  0  0  0
    1.9952   -0.1792    0.2692 C   0  0  2  0  0  0  0  0  0  0  0  0
    1.4963   -1.6287    0.3955 C   0  0  0  0  0  0  0  0  0  0  0  0
   -0.0117   -1.6998    0.1935 C   0  0  0  0  0  0  0  0  0  0  0  0
   -0.6639   -3.3685    0.5478 S   0  0  0  0  0  0  0  0  0  0  0  0
   -2.4353   -3.0238    0.2717 C   0  0  0  0  0  0  0  0  0  0  0  0
   -3.0817   -2.3255    1.4732 C   0  0  0  0  0  0  0  0  0  0  0  0
   -4.2715   -1.4441    1.0681 C   0  0  0  0  0  0  0  0  0  0  0  0
   -3.8531   -0.0597    0.6959 C   0  0  0  0  0  0  0  0  0  0  0  0
   -2.9088    0.4276   -0.1812 C   0  0  0  0  0  0  0  0  0  0  0  0
   -2.9266    1.8314   -0.0334 C   0  0  0  0  0  0  0  0  0  0  0  0
   -3.8933    2.2111    0.8038 N   0  0  0  0  0  0  0  0  0  0  0  0
   -4.4165    1.0576    1.2510 N   0  0  0  0  0  0  0  0  0  0  0  0
   -2.1276    2.6957   -0.6853 N   0  0  0  0  0  0  0  0  0  0  0  0
   -0.8650    2.4842   -1.2796 C   0  0  0  0  0  0  0  0  0  0  0  0
   -0.0801    1.4531   -0.8861 N   0  0  0  0  0  0  0  0  0  0  0  0
    1.0957    1.2730   -1.5079 C   0  0  0  0  0  0  0  0  0  0  0  0
    1.5254    2.0299   -2.5253 N   0  0  0  0  0  0  0  0  0  0  0  0
    0.7330    3.0531   -2.8984 C   0  0  0  0  0  0  0  0  0  0  0  0
   -0.4685    3.3282   -2.3010 C   0  0  0  0  0  0  0  0  0  0  0  0
   -1.2219    4.3611   -2.7025 F   0  0  0  0  0  0  0  0  0  0  0  0
    1.9358    0.2690   -1.1185 N   0  0  0  0  0  0  0  0  0  0  0  0
    3.6446    0.1116    2.0945 N   0  0  0  0  0  0  0  0  0  0  0  0
    4.9298    0.1516    2.5111 C   0  0  0  0  0  0  0  0  0  0  0  0
    6.4943   -0.4041   -0.3764 H   0  0  0  0  0  0  0  0  0  0  0  0
    1.4099    0.4761    0.9278 H   0  0  0  0  0  0  0  0  0  0  0  0
    2.0076   -2.2750   -0.3304 H   0  0  0  0  0  0  0  0  0  0  0  0
    1.7457   -2.0110    1.3947 H   0  0  0  0  0  0  0  0  0  0  0  0
   -0.2640   -1.4530   -0.8416 H   0  0  0  0  0  0  0  0  0  0  0  0
   -0.5021   -0.9875    0.8623 H   0  0  0  0  0  0  0  0  0  0  0  0
   -2.9378   -3.9824    0.1014 H   0  0  0  0  0  0  0  0  0  0  0  0
   -2.5372   -2.4528   -0.6552 H   0  0  0  0  0  0  0  0  0  0  0  0
   -2.3623   -1.7282    2.0462 H   0  0  0  0  0  0  0  0  0  0  0  0
   -3.4444   -3.1055    2.1556 H   0  0  0  0  0  0  0  0  0  0  0  0
   -4.8319   -1.8991    0.2430 H   0  0  0  0  0  0  0  0  0  0  0  0
   -4.9599   -1.3877    1.9212 H   0  0  0  0  0  0  0  0  0  0  0  0
   -2.2658   -0.1432   -0.8322 H   0  0  0  0  0  0  0  0  0  0  0  0
   -5.1601    1.1068    1.9395 H   0  0  0  0  0  0  0  0  0  0  0  0
   -2.3641    3.6764   -0.5960 H   0  0  0  0  0  0  0  0  0  0  0  0
    1.1017    3.6636   -3.7151 H   0  0  0  0  0  0  0  0  0  0  0  0
    2.8060    0.2367   -1.6381 H   0  0  0  0  0  0  0  0  0  0  0  0
    5.0772    0.3348    3.5701 H   0  0  0  0  0  0  0  0  0  0  0  0
  1  2  1  0
  2  3  2  0
  3  4  1  0
  4  5  2  0
  5  6  1  0
  6  7  1  0
  7  8  1  0
  8  9  1  0
  9 10  1  0
 10 11  1  0
 11 12  1  0
 12 13  1  0
 13 14  2  0
 14 15  1  0
 15 16  2  0
 16 17  1  0
 15 18  1  0
 18 19  1  0
 19 20  1  0
 20 21  2  0
 21 22  1  0
 22 23  2  0
 23 24  1  0
 24 25  1  0
 21 26  1  0
  5 27  1  0
 27 28  2  0
 28  2  1  0
 26  6  1  0
 17 13  1  0
 24 19  2  0
  3 29  1  0
  6 30  1  1
  7 31  1  0
  7 32  1  0
  8 33  1  0
  8 34  1  0
 10 35  1  0
 10 36  1  0
 11 37  1  0
 11 38  1  0
 12 39  1  0
 12 40  1  0
 14 41  1  0
 17 42  1  0
 18 43  1  0
 23 44  1  0
 26 45  1  0
 28 46  1  0
M  END
>  <candidate_id>  (135) 
CAND_689b77b5c8

>  <source_generator>  (135) 
macrocycle_linker

>  <parent_mol_id>  (135) 
JAK2_fc1e2398b3

>  <canonical_smiles>  (135) 
Fc1cnc([C@@H]2CCSCCCc3cc(n[nH]3)Nc3nc(ncc3F)N2)nc1

>  <inchikey>  (135) 
MXJZRGBAOCABTC-ZDUSSCGKSA-N

>  <valid_rdkit>  (135) 
True

>  <unique_flag>  (135) 
True

>  <novel_flag>  (135) 
True

>  <mw>  (135) 
404.45

>  <logp>  (135) 
3.2342

>  <tpsa>  (135) 
104.3

>  <hbd>  (135) 
3

>  <hba>  (135) 
8

>  <rotatable_bonds>  (135) 
1

>  <qed>  (135) 
0.5679

>  <sa_score>  (135) 
3.878

>  <murcko_scaffold>  (135) 
c1cnc([C@@H]2CCSCCCc3cc(n[nH]3)Nc3ccnc(n3)N2)nc1

>  <max_ring_size>  (135) 
15

>  <has_macrocycle_12_20>  (135) 
True

>  <has_constrained_ring_8_11>  (135) 
False

>  <passes_basic_filters>  (135) 
True

>  <generation_notes>  (135) 
macrocycle_bridge_thioether_path10_ring14

>  <best_score>  (135) 
nan

>  <qed_admet>  (135) 
0.5679

>  <sa_score_admet>  (135) 
3.878

>  <mw_admet>  (135) 
404.45

>  <logp_admet>  (135) 
3.2342

>  <tpsa_admet>  (135) 
104.3

>  <hbd_admet>  (135) 
3

>  <hba_admet>  (135) 
8

>  <rotatable_bonds_admet>  (135) 
1

>  <lipinski_violations>  (135) 
0

>  <veber_pass>  (135) 
True

>  <admet_score>  (135) 
0.805555

>  <synthesis_score>  (135) 
0.680222

>  <safety_proxy_score>  (135) 
1.0

>  <main_risk>  (135) 
no_major_descriptor_risk

>  <pose_score>  (135) 
0.5

>  <pose_decision>  (135) 
nan

>  <contacts_within_4A>  (135) 
nan

>  <hard_clashes_lt_1_8A>  (135) 
nan

>  <smiles>  (135) 
Fc1cnc([C@@H]2CCSCCCc3cc(n[nH]3)Nc3nc(ncc3F)N2)nc1

>  <docking_score>  (135) 
nan

>  <diversity_cluster>  (135) 
scaffold_96a7c7df

>  <docking_score_scaled>  (135) 
0.0

>  <novelty_score>  (135) 
1.0

>  <final_weighted_score>  (135) 
0.488144

>  <rank>  (135) 
1806

>  <decision>  (135) 
await_docking

>  <diverse_rank>  (135) 
1133

>  <selection_tier>  (135) 
await_docking

$$$$
CAND_a0d42e7c77
     RDKit          3D

 51 54  0  0  0  0  0  0  0  0999 V2000
   -5.3350   -0.6265   -0.8455 C   0  0  0  0  0  0  0  0  0  0  0  0
   -4.3773    0.4155   -0.4104 C   0  0  0  0  0  0  0  0  0  0  0  0
   -4.3239    1.6361   -1.0230 N   0  0  0  0  0  0  0  0  0  0  0  0
   -3.4119    2.4634   -0.5054 N   0  0  0  0  0  0  0  0  0  0  0  0
   -2.8275    1.7516    0.4582 C   0  0  0  0  0  0  0  0  0  0  0  0
   -3.3788    0.4371    0.5499 C   0  0  0  0  0  0  0  0  0  0  0  0
   -2.9255   -0.6844    1.4326 C   0  0  0  0  0  0  0  0  0  0  0  0
   -1.6041   -1.3071    0.9613 C   0  0  0  0  0  0  0  0  0  0  0  0
   -1.7507   -2.1918   -0.2806 C   0  0  0  0  0  0  0  0  0  0  0  0
   -0.6482   -2.0500   -1.1754 O   0  0  0  0  0  0  0  0  0  0  0  0
    0.5670   -2.6334   -0.7239 C   0  0  0  0  0  0  0  0  0  0  0  0
    1.6711   -2.2999   -1.7311 C   0  0  0  0  0  0  0  0  0  0  0  0
    1.7732   -0.8093   -2.1009 C   0  0  0  0  0  0  0  0  0  0  0  0
    2.0013    0.1352   -0.9102 C   0  0  1  0  0  0  0  0  0  0  0  0
    3.3586   -0.0955   -0.2576 C   0  0  0  0  0  0  0  0  0  0  0  0
    3.3662   -0.4820    1.0416 N   0  0  0  0  0  0  0  0  0  0  0  0
    4.5799   -0.6646    1.6078 C   0  0  0  0  0  0  0  0  0  0  0  0
    5.7625   -0.4905    0.9342 C   0  0  0  0  0  0  0  0  0  0  0  0
    6.9469   -0.6814    1.5245 F   0  0  0  0  0  0  0  0  0  0  0  0
    5.6574   -0.1156   -0.3807 C   0  0  0  0  0  0  0  0  0  0  0  0
    4.4750    0.0804   -1.0025 N   0  0  0  0  0  0  0  0  0  0  0  0
    1.9121    1.4932   -1.3841 O   0  0  0  0  0  0  0  0  0  0  0  0
    1.2857    2.2532   -0.4254 C   0  0  0  0  0  0  0  0  0  0  0  0
    2.0362    3.1687    0.1969 N   0  0  0  0  0  0  0  0  0  0  0  0
    1.4265    3.8120    1.2124 C   0  0  0  0  0  0  0  0  0  0  0  0
    0.1348    3.5529    1.6230 C   0  0  0  0  0  0  0  0  0  0  0  0
   -0.5239    4.3660    2.9872 Cl  0  0  0  0  0  0  0  0  0  0  0  0
   -0.5634    2.5965    0.8953 C   0  0  0  0  0  0  0  0  0  0  0  0
    0.0084    1.9596   -0.1483 N   0  0  0  0  0  0  0  0  0  0  0  0
   -1.8662    2.2180    1.2808 N   0  0  0  0  0  0  0  0  0  0  0  0
   -4.9470   -1.1598   -1.7190 H   0  0  0  0  0  0  0  0  0  0  0  0
   -6.3001   -0.1845   -1.1143 H   0  0  0  0  0  0  0  0  0  0  0  0
   -5.5153   -1.3564   -0.0508 H   0  0  0  0  0  0  0  0  0  0  0  0
   -4.8840    1.9723   -1.7989 H   0  0  0  0  0  0  0  0  0  0  0  0
   -3.6978   -1.4586    1.5055 H   0  0  0  0  0  0  0  0  0  0  0  0
   -2.7885   -0.2931    2.4485 H   0  0  0  0  0  0  0  0  0  0  0  0
   -0.8612   -0.5236    0.7867 H   0  0  0  0  0  0  0  0  0  0  0  0
   -1.2041   -1.9267    1.7739 H   0  0  0  0  0  0  0  0  0  0  0  0
   -1.8697   -3.2449    0.0004 H   0  0  0  0  0  0  0  0  0  0  0  0
   -2.6376   -1.9178   -0.8568 H   0  0  0  0  0  0  0  0  0  0  0  0
    0.8329   -2.2591    0.2696 H   0  0  0  0  0  0  0  0  0  0  0  0
    0.4456   -3.7203   -0.6567 H   0  0  0  0  0  0  0  0  0  0  0  0
    1.4677   -2.8488   -2.6594 H   0  0  0  0  0  0  0  0  0  0  0  0
    2.6315   -2.6674   -1.3526 H   0  0  0  0  0  0  0  0  0  0  0  0
    2.5740   -0.6817   -2.8413 H   0  0  0  0  0  0  0  0  0  0  0  0
    0.8569   -0.5020   -2.6221 H   0  0  0  0  0  0  0  0  0  0  0  0
    1.2322   -0.0800   -0.1602 H   0  0  0  0  0  0  0  0  0  0  0  0
    4.5748   -0.9633    2.6504 H   0  0  0  0  0  0  0  0  0  0  0  0
    6.5417    0.0427   -0.9883 H   0  0  0  0  0  0  0  0  0  0  0  0
    2.0399    4.5534    1.7161 H   0  0  0  0  0  0  0  0  0  0  0  0
   -1.9182    2.0122    2.2686 H   0  0  0  0  0  0  0  0  0  0  0  0
  1  2  1  0
  2  3  1  0
  3  4  1  0
  4  5  2  0
  5  6  1  0
  6  7  1  0
  7  8  1  0
  8  9  1  0
  9 10  1  0
 10 11  1  0
 11 12  1  0
 12 13  1  0
 13 14  1  0
 14 15  1  0
 15 16  2  0
 16 17  1  0
 17 18  2  0
 18 19  1  0
 18 20  1  0
 20 21  2  0
 14 22  1  0
 22 23  1  0
 23 24  1  0
 24 25  2  0
 25 26  1  0
 26 27  1  0
 26 28  2  0
 28 29  1  0
 28 30  1  0
  6  2  2  0
 21 15  1  0
 29 23  2  0
 30  5  1  0
  1 31  1  0
  1 32  1  0
  1 33  1  0
  3 34  1  0
  7 35  1  0
  7 36  1  0
  8 37  1  0
  8 38  1  0
  9 39  1  0
  9 40  1  0
 11 41  1  0
 11 42  1  0
 12 43  1  0
 12 44  1  0
 13 45  1  0
 13 46  1  0
 14 47  1  1
 17 48  1  0
 20 49  1  0
 25 50  1  0
 30 51  1  0
M  END
>  <candidate_id>  (136) 
CAND_a0d42e7c77

>  <source_generator>  (136) 
macrocycle_linker

>  <parent_mol_id>  (136) 
JAK2_aaa3dcf6eb

>  <canonical_smiles>  (136) 
Cc1[nH]nc2c1CCCOCCC[C@@H](c1ncc(F)cn1)Oc1ncc(Cl)c(n1)N2

>  <inchikey>  (136) 
ZNVUKQCTQMDWDI-HNNXBMFYSA-N

>  <valid_rdkit>  (136) 
True

>  <unique_flag>  (136) 
True

>  <novel_flag>  (136) 
True

>  <mw>  (136) 
433.875

>  <logp>  (136) 
3.6973

>  <tpsa>  (136) 
110.73

>  <hbd>  (136) 
2

>  <hba>  (136) 
8

>  <rotatable_bonds>  (136) 
1

>  <qed>  (136) 
0.5972

>  <sa_score>  (136) 
4.041

>  <murcko_scaffold>  (136) 
c1cnc([C@@H]2CCCOCCCc3c[nH]nc3Nc3ccnc(n3)O2)nc1

>  <max_ring_size>  (136) 
15

>  <has_macrocycle_12_20>  (136) 
True

>  <has_constrained_ring_8_11>  (136) 
False

>  <passes_basic_filters>  (136) 
True

>  <generation_notes>  (136) 
macrocycle_bridge_oxa_path8_ring14

>  <best_score>  (136) 
nan

>  <qed_admet>  (136) 
0.5972

>  <sa_score_admet>  (136) 
4.041

>  <mw_admet>  (136) 
433.875

>  <logp_admet>  (136) 
3.6973

>  <tpsa_admet>  (136) 
110.73

>  <hbd_admet>  (136) 
2

>  <hba_admet>  (136) 
8

>  <rotatable_bonds_admet>  (136) 
1

>  <lipinski_violations>  (136) 
0

>  <veber_pass>  (136) 
True

>  <admet_score>  (136) 
0.81874

>  <synthesis_score>  (136) 
0.662111

>  <safety_proxy_score>  (136) 
1.0

>  <main_risk>  (136) 
no_major_descriptor_risk

>  <pose_score>  (136) 
0.5

>  <pose_decision>  (136) 
nan

>  <contacts_within_4A>  (136) 
nan

>  <hard_clashes_lt_1_8A>  (136) 
nan

>  <smiles>  (136) 
Cc1[nH]nc2c1CCCOCCC[C@@H](c1ncc(F)cn1)Oc1ncc(Cl)c(n1)N2

>  <docking_score>  (136) 
nan

>  <diversity_cluster>  (136) 
scaffold_83314854

>  <docking_score_scaled>  (136) 
0.0

>  <novelty_score>  (136) 
1.0

>  <final_weighted_score>  (136) 
0.488065

>  <rank>  (136) 
1811

>  <decision>  (136) 
await_docking

>  <diverse_rank>  (136) 
1137

>  <selection_tier>  (136) 
await_docking

$$$$
CAND_ebcfd1f7b9
     RDKit          3D

 49 52  0  0  0  0  0  0  0  0999 V2000
    5.2264    0.9951    0.3339 C   0  0  0  0  0  0  0  0  0  0  0  0
    4.1283   -0.0126    0.1571 C   0  0  0  0  0  0  0  0  0  0  0  0
    4.4225   -1.2834    0.5325 N   0  0  0  0  0  0  0  0  0  0  0  0
    3.4203   -2.1897    0.3840 C   0  0  0  0  0  0  0  0  0  0  0  0
    3.7524   -3.5325    0.7641 C   0  0  0  0  0  0  0  0  0  0  0  0
    3.9939   -4.6253    1.0806 N   0  0  0  0  0  0  0  0  0  0  0  0
    2.1513   -1.8626   -0.1121 C   0  0  0  0  0  0  0  0  0  0  0  0
    1.8873   -0.5816   -0.4672 N   0  0  0  0  0  0  0  0  0  0  0  0
    2.8674    0.3511   -0.3500 C   0  0  0  0  0  0  0  0  0  0  0  0
    2.6111    1.6842   -0.7067 N   0  0  0  0  0  0  0  0  0  0  0  0
    1.4813    2.4119   -0.6423 C   0  0  0  0  0  0  0  0  0  0  0  0
    0.2978    2.0778    0.0544 C   0  0  0  0  0  0  0  0  0  0  0  0
   -0.5342    3.1721   -0.0760 C   0  0  0  0  0  0  0  0  0  0  0  0
    0.1644    4.0500   -0.8581 N   0  0  0  0  0  0  0  0  0  0  0  0
    1.3923    3.6259   -1.1898 N   0  0  0  0  0  0  0  0  0  0  0  0
   -1.8797    3.5126    0.4722 C   0  0  0  0  0  0  0  0  0  0  0  0
   -2.7393    2.2983    0.8280 C   0  0  0  0  0  0  0  0  0  0  0  0
   -3.2945    1.5844   -0.4112 C   0  0  0  0  0  0  0  0  0  0  0  0
   -4.0063    0.2720   -0.0604 C   0  0  0  0  0  0  0  0  0  0  0  0
   -3.0471   -0.7926    0.4038 C   0  0  0  0  0  0  0  0  0  0  0  0
   -2.0678   -1.1508   -0.4611 N   0  0  0  0  0  0  0  0  0  0  0  0
   -1.1676   -2.0673   -0.0419 C   0  0  0  0  0  0  0  0  0  0  0  0
   -1.2154   -2.6857    1.1645 N   0  0  0  0  0  0  0  0  0  0  0  0
   -2.2195   -2.3098    1.9853 C   0  0  0  0  0  0  0  0  0  0  0  0
   -3.1610   -1.3651    1.6530 C   0  0  0  0  0  0  0  0  0  0  0  0
   -4.1275   -1.0205    2.5124 F   0  0  0  0  0  0  0  0  0  0  0  0
   -0.0679   -2.4774   -1.0210 C   0  0  2  0  0  0  0  0  0  0  0  0
   -0.5350   -3.7056   -1.8055 C   0  0  0  0  0  0  0  0  0  0  0  0
    1.1765   -2.8282   -0.3269 N   0  0  0  0  0  0  0  0  0  0  0  0
    4.8997    1.8067    0.9914 H   0  0  0  0  0  0  0  0  0  0  0  0
    6.1088    0.5319    0.7879 H   0  0  0  0  0  0  0  0  0  0  0  0
    5.5255    1.4072   -0.6347 H   0  0  0  0  0  0  0  0  0  0  0  0
    3.3656    2.1221   -1.2172 H   0  0  0  0  0  0  0  0  0  0  0  0
    0.0983    1.1712    0.6079 H   0  0  0  0  0  0  0  0  0  0  0  0
   -0.1262    4.9678   -1.1780 H   0  0  0  0  0  0  0  0  0  0  0  0
   -1.7274    4.1066    1.3824 H   0  0  0  0  0  0  0  0  0  0  0  0
   -2.4230    4.1530   -0.2338 H   0  0  0  0  0  0  0  0  0  0  0  0
   -3.5874    2.6386    1.4358 H   0  0  0  0  0  0  0  0  0  0  0  0
   -2.1669    1.6080    1.4575 H   0  0  0  0  0  0  0  0  0  0  0  0
   -2.4959    1.3952   -1.1378 H   0  0  0  0  0  0  0  0  0  0  0  0
   -4.0132    2.2501   -0.9054 H   0  0  0  0  0  0  0  0  0  0  0  0
   -4.7816    0.4590    0.6917 H   0  0  0  0  0  0  0  0  0  0  0  0
   -4.5204   -0.1071   -0.9521 H   0  0  0  0  0  0  0  0  0  0  0  0
   -2.2476   -2.8015    2.9519 H   0  0  0  0  0  0  0  0  0  0  0  0
    0.0916   -1.6687   -1.7451 H   0  0  0  0  0  0  0  0  0  0  0  0
   -0.7262   -4.5594   -1.1445 H   0  0  0  0  0  0  0  0  0  0  0  0
    0.2266   -4.0140   -2.5304 H   0  0  0  0  0  0  0  0  0  0  0  0
   -1.4596   -3.4955   -2.3546 H   0  0  0  0  0  0  0  0  0  0  0  0
    1.0489   -3.5161    0.4108 H   0  0  0  0  0  0  0  0  0  0  0  0
  1  2  1  0
  2  3  2  0
  3  4  1  0
  4  5  1  0
  5  6  3  0
  4  7  2  0
  7  8  1  0
  8  9  2  0
  9 10  1  0
 10 11  1  0
 11 12  1  0
 12 13  2  0
 13 14  1  0
 14 15  1  0
 13 16  1  0
 16 17  1  0
 17 18  1  0
 18 19  1  0
 19 20  1  0
 20 21  2  0
 21 22  1  0
 22 23  2  0
 23 24  1  0
 24 25  2  0
 25 26  1  0
 22 27  1  0
 27 28  1  0
 27 29  1  0
  9  2  1  0
 15 11  2  0
 25 20  1  0
 29  7  1  0
  1 30  1  0
  1 31  1  0
  1 32  1  0
 10 33  1  0
 12 34  1  0
 14 35  1  0
 16 36  1  0
 16 37  1  0
 17 38  1  0
 17 39  1  0
 18 40  1  0
 18 41  1  0
 19 42  1  0
 19 43  1  0
 24 44  1  0
 27 45  1  6
 28 46  1  0
 28 47  1  0
 28 48  1  0
 29 49  1  0
M  END
>  <candidate_id>  (137) 
CAND_ebcfd1f7b9

>  <source_generator>  (137) 
macrocycle_linker

>  <parent_mol_id>  (137) 
JAK2_c828b6ae57

>  <canonical_smiles>  (137) 
Cc1nc(C#N)c2nc1Nc1cc([nH]n1)CCCCc1nc(ncc1F)[C@H](C)N2

>  <inchikey>  (137) 
YLZDVJZJHXORLB-JTQLQIEISA-N

>  <valid_rdkit>  (137) 
True

>  <unique_flag>  (137) 
True

>  <novel_flag>  (137) 
True

>  <mw>  (137) 
393.43

>  <logp>  (137) 
3.1044

>  <tpsa>  (137) 
128.09

>  <hbd>  (137) 
3

>  <hba>  (137) 
8

>  <rotatable_bonds>  (137) 
0

>  <qed>  (137) 
0.5314

>  <sa_score>  (137) 
3.691

>  <murcko_scaffold>  (137) 
c1cc2nc(n1)CNc1cncc(n1)Nc1cc([nH]n1)CCCC2

>  <max_ring_size>  (137) 
16

>  <has_macrocycle_12_20>  (137) 
True

>  <has_constrained_ring_8_11>  (137) 
False

>  <passes_basic_filters>  (137) 
True

>  <generation_notes>  (137) 
macrocycle_bridge_oxa_aza_path12_ring15

>  <best_score>  (137) 
nan

>  <qed_admet>  (137) 
0.5314

>  <sa_score_admet>  (137) 
3.691

>  <mw_admet>  (137) 
393.43

>  <logp_admet>  (137) 
3.1044

>  <tpsa_admet>  (137) 
128.09

>  <hbd_admet>  (137) 
3

>  <hba_admet>  (137) 
8

>  <rotatable_bonds_admet>  (137) 
0

>  <lipinski_violations>  (137) 
0

>  <veber_pass>  (137) 
True

>  <admet_score>  (137) 
0.78913

>  <synthesis_score>  (137) 
0.701

>  <safety_proxy_score>  (137) 
1.0

>  <main_risk>  (137) 
no_major_descriptor_risk

>  <pose_score>  (137) 
0.5

>  <pose_decision>  (137) 
nan

>  <contacts_within_4A>  (137) 
nan

>  <hard_clashes_lt_1_8A>  (137) 
nan

>  <smiles>  (137) 
Cc1nc(C#N)c2nc1Nc1cc([nH]n1)CCCCc1nc(ncc1F)[C@H](C)N2

>  <docking_score>  (137) 
nan

>  <diversity_cluster>  (137) 
scaffold_965fcfba

>  <docking_score_scaled>  (137) 
0.0

>  <novelty_score>  (137) 
1.0

>  <final_weighted_score>  (137) 
0.487976

>  <rank>  (137) 
1821

>  <decision>  (137) 
await_docking

>  <diverse_rank>  (137) 
1142

>  <selection_tier>  (137) 
await_docking

$$$$
CAND_1450c465bc
     RDKit          3D

 54 58  0  0  0  0  0  0  0  0999 V2000
   -4.8815   -3.8880    1.0815 N   0  0  0  0  0  0  0  0  0  0  0  0
   -3.9279   -3.5216    0.5312 C   0  0  0  0  0  0  0  0  0  0  0  0
   -2.7155   -3.0608   -0.1560 C   0  0  0  0  0  0  0  0  0  0  0  0
   -1.9469   -1.9866    0.6456 C   0  0  2  0  0  0  0  0  0  0  0  0
   -2.4762   -0.4940    0.6299 C   0  0  0  0  0  0  0  0  0  0  0  0
   -4.0009   -0.3429    0.6849 C   0  0  0  0  0  0  0  0  0  0  0  0
   -4.4668   -0.2424   -0.7664 C   0  0  0  0  0  0  0  0  0  0  0  0
   -3.2209    0.0533   -1.6033 C   0  0  0  0  0  0  0  0  0  0  0  0
   -2.1066    0.3862   -0.6005 C   0  0  0  0  0  0  0  0  0  0  0  0
   -2.1324    1.9197   -0.3198 C   0  0  0  0  0  0  0  0  0  0  0  0
   -1.0691    2.4628    0.6458 C   0  0  0  0  0  0  0  0  0  0  0  0
    0.2922    2.7135   -0.0144 C   0  0  0  0  0  0  0  0  0  0  0  0
    1.3306    3.1874    1.0255 C   0  0  0  0  0  0  0  0  0  0  0  0
    2.7970    3.0886    0.5580 C   0  0  0  0  0  0  0  0  0  0  0  0
    3.3200    1.6754    0.4309 C   0  0  0  0  0  0  0  0  0  0  0  0
    2.4230    0.6957    0.6129 N   0  0  0  0  0  0  0  0  0  0  0  0
    2.7375   -0.5737    0.2865 C   0  0  0  0  0  0  0  0  0  0  0  0
    4.0291   -0.8773   -0.1253 C   0  0  0  0  0  0  0  0  0  0  0  0
    4.7721   -2.0172   -0.5392 C   0  0  0  0  0  0  0  0  0  0  0  0
    6.0549   -1.5972   -0.8262 C   0  0  0  0  0  0  0  0  0  0  0  0
    6.1126   -0.2430   -0.6104 N   0  0  0  0  0  0  0  0  0  0  0  0
    4.8897    0.2118   -0.1979 C   0  0  0  0  0  0  0  0  0  0  0  0
    4.5980    1.5020    0.0456 N   0  0  0  0  0  0  0  0  0  0  0  0
    1.6131   -1.4676    0.2004 C   0  0  0  0  0  0  0  0  0  0  0  0
    1.2503   -2.4101   -0.7796 C   0  0  0  0  0  0  0  0  0  0  0  0
   -0.0300   -2.7817   -0.6790 N   0  0  0  0  0  0  0  0  0  0  0  0
   -0.5041   -2.0392    0.3445 N   0  0  0  0  0  0  0  0  0  0  0  0
    0.4708   -1.3109    0.9610 C   0  0  0  0  0  0  0  0  0  0  0  0
   -2.1011   -3.9623   -0.2797 H   0  0  0  0  0  0  0  0  0  0  0  0
   -2.9478   -2.7218   -1.1674 H   0  0  0  0  0  0  0  0  0  0  0  0
   -1.9849   -2.3019    1.7006 H   0  0  0  0  0  0  0  0  0  0  0  0
   -2.0672   -0.0349    1.5374 H   0  0  0  0  0  0  0  0  0  0  0  0
   -4.5125   -1.1221    1.2504 H   0  0  0  0  0  0  0  0  0  0  0  0
   -4.2526    0.5937    1.1994 H   0  0  0  0  0  0  0  0  0  0  0  0
   -5.2102    0.5553   -0.8723 H   0  0  0  0  0  0  0  0  0  0  0  0
   -4.9416   -1.1698   -1.1022 H   0  0  0  0  0  0  0  0  0  0  0  0
   -2.9451   -0.8277   -2.1918 H   0  0  0  0  0  0  0  0  0  0  0  0
   -3.4046    0.8579   -2.3233 H   0  0  0  0  0  0  0  0  0  0  0  0
   -1.1313    0.1343   -1.0258 H   0  0  0  0  0  0  0  0  0  0  0  0
   -3.1141    2.1990    0.0814 H   0  0  0  0  0  0  0  0  0  0  0  0
   -2.0424    2.4564   -1.2734 H   0  0  0  0  0  0  0  0  0  0  0  0
   -1.4292    3.4202    1.0441 H   0  0  0  0  0  0  0  0  0  0  0  0
   -0.9535    1.7969    1.5059 H   0  0  0  0  0  0  0  0  0  0  0  0
    0.6113    1.8033   -0.5269 H   0  0  0  0  0  0  0  0  0  0  0  0
    0.1921    3.4817   -0.7911 H   0  0  0  0  0  0  0  0  0  0  0  0
    1.2129    2.6233    1.9597 H   0  0  0  0  0  0  0  0  0  0  0  0
    1.1139    4.2352    1.2694 H   0  0  0  0  0  0  0  0  0  0  0  0
    2.9096    3.5929   -0.4087 H   0  0  0  0  0  0  0  0  0  0  0  0
    3.4320    3.6143    1.2807 H   0  0  0  0  0  0  0  0  0  0  0  0
    4.4155   -3.0369   -0.6079 H   0  0  0  0  0  0  0  0  0  0  0  0
    6.9274   -2.1410   -1.1642 H   0  0  0  0  0  0  0  0  0  0  0  0
    6.9164    0.3532   -0.7458 H   0  0  0  0  0  0  0  0  0  0  0  0
    1.8389   -2.7926   -1.6035 H   0  0  0  0  0  0  0  0  0  0  0  0
    0.2562   -0.6487    1.7889 H   0  0  0  0  0  0  0  0  0  0  0  0
  1  2  3  0
  2  3  1  0
  3  4  1  0
  4  5  1  0
  5  6  1  0
  6  7  1  0
  7  8  1  0
  8  9  1  0
  9 10  1  0
 10 11  1  0
 11 12  1  0
 12 13  1  0
 13 14  1  0
 14 15  1  0
 15 16  1  0
 16 17  2  0
 17 18  1  0
 18 19  1  0
 19 20  2  0
 20 21  1  0
 21 22  1  0
 22 23  1  0
 17 24  1  0
 24 25  1  0
 25 26  2  0
 26 27  1  0
 27 28  1  0
 27  4  1  0
  9  5  1  0
 23 15  2  0
 28 24  2  0
 22 18  2  0
  3 29  1  0
  3 30  1  0
  4 31  1  1
  5 32  1  0
  6 33  1  0
  6 34  1  0
  7 35  1  0
  7 36  1  0
  8 37  1  0
  8 38  1  0
  9 39  1  0
 10 40  1  0
 10 41  1  0
 11 42  1  0
 11 43  1  0
 12 44  1  0
 12 45  1  0
 13 46  1  0
 13 47  1  0
 14 48  1  0
 14 49  1  0
 19 50  1  0
 20 51  1  0
 21 52  1  0
 25 53  1  0
 28 54  1  0
M  END
>  <candidate_id>  (138) 
CAND_1450c465bc

>  <source_generator>  (138) 
macrocycle_linker

>  <parent_mol_id>  (138) 
JAK2_0363b39a60

>  <canonical_smiles>  (138) 
N#CC[C@@H]1C2CCCC2CCCCCc2nc(c3cc[nH]c3n2)-c2cnn1c2

>  <inchikey>  (138) 
QIXOLEJZBZMQDB-GXOAENINSA-N

>  <valid_rdkit>  (138) 
True

>  <unique_flag>  (138) 
True

>  <novel_flag>  (138) 
True

>  <mw>  (138) 
374.492

>  <logp>  (138) 
4.809

>  <tpsa>  (138) 
83.18

>  <hbd>  (138) 
1

>  <hba>  (138) 
4

>  <rotatable_bonds>  (138) 
1

>  <qed>  (138) 
0.6624

>  <sa_score>  (138) 
4.411

>  <murcko_scaffold>  (138) 
c1cc2c3nc(nc2[nH]1)CCCCCC1CCCC1Cn1cc-3cn1

>  <max_ring_size>  (138) 
14

>  <has_macrocycle_12_20>  (138) 
True

>  <has_constrained_ring_8_11>  (138) 
False

>  <passes_basic_filters>  (138) 
True

>  <generation_notes>  (138) 
macrocycle_bridge_alkyl_path8_ring13

>  <best_score>  (138) 
nan

>  <qed_admet>  (138) 
0.6624

>  <sa_score_admet>  (138) 
4.411

>  <mw_admet>  (138) 
374.492

>  <logp_admet>  (138) 
4.809

>  <tpsa_admet>  (138) 
83.18

>  <hbd_admet>  (138) 
1

>  <hba_admet>  (138) 
4

>  <rotatable_bonds_admet>  (138) 
1

>  <lipinski_violations>  (138) 
0

>  <veber_pass>  (138) 
True

>  <admet_score>  (138) 
0.84808

>  <synthesis_score>  (138) 
0.621

>  <safety_proxy_score>  (138) 
1.0

>  <main_risk>  (138) 
no_major_descriptor_risk

>  <pose_score>  (138) 
0.5

>  <pose_decision>  (138) 
nan

>  <contacts_within_4A>  (138) 
nan

>  <hard_clashes_lt_1_8A>  (138) 
nan

>  <smiles>  (138) 
N#CC[C@@H]1C2CCCC2CCCCCc2nc(c3cc[nH]c3n2)-c2cnn1c2

>  <docking_score>  (138) 
nan

>  <diversity_cluster>  (138) 
scaffold_f5f19feb

>  <docking_score_scaled>  (138) 
0.0

>  <novelty_score>  (138) 
1.0

>  <final_weighted_score>  (138) 
0.487766

>  <rank>  (138) 
1825

>  <decision>  (138) 
await_docking

>  <diverse_rank>  (138) 
1145

>  <selection_tier>  (138) 
await_docking

$$$$
CAND_edf26a0208
     RDKit          3D

 45 48  0  0  0  0  0  0  0  0999 V2000
    3.9707   -0.8970   -0.1477 C   0  0  0  0  0  0  0  0  0  0  0  0
    2.4490   -1.0307   -0.0424 C   0  0  2  0  0  0  0  0  0  0  0  0
    2.0707   -2.3289   -0.5993 N   0  0  0  0  0  0  0  0  0  0  0  0
    0.8976   -2.9446   -0.1807 C   0  0  0  0  0  0  0  0  0  0  0  0
    0.0295   -2.2299    0.5774 N   0  0  0  0  0  0  0  0  0  0  0  0
   -1.1069   -2.8256    1.0113 C   0  0  0  0  0  0  0  0  0  0  0  0
   -1.3486   -4.1623    0.6960 C   0  0  0  0  0  0  0  0  0  0  0  0
   -0.5115   -4.9240   -0.0460 N   0  0  0  0  0  0  0  0  0  0  0  0
    0.6087   -4.2842   -0.4819 C   0  0  0  0  0  0  0  0  0  0  0  0
    1.5014   -5.0825   -1.2719 C   0  0  0  0  0  0  0  0  0  0  0  0
    2.2284   -5.7134   -1.9248 N   0  0  0  0  0  0  0  0  0  0  0  0
   -2.0789   -2.0922    1.7058 N   0  0  0  0  0  0  0  0  0  0  0  0
   -2.3861   -0.7838    1.6195 C   0  0  0  0  0  0  0  0  0  0  0  0
   -1.9802    0.1007    0.5944 C   0  0  0  0  0  0  0  0  0  0  0  0
   -2.5810    1.3067    0.8813 C   0  0  0  0  0  0  0  0  0  0  0  0
   -3.2796    1.0866    2.0358 N   0  0  0  0  0  0  0  0  0  0  0  0
   -3.2025   -0.1767    2.4834 N   0  0  0  0  0  0  0  0  0  0  0  0
   -2.5709    2.6098    0.1584 C   0  0  0  0  0  0  0  0  0  0  0  0
   -1.9738    3.7734    0.9517 C   0  0  0  0  0  0  0  0  0  0  0  0
   -0.2310    3.5793    1.4642 S   0  0  0  0  0  0  0  0  0  0  0  0
    0.6094    3.6957   -0.1485 C   0  0  0  0  0  0  0  0  0  0  0  0
    0.8925    2.3734   -0.8085 C   0  0  0  0  0  0  0  0  0  0  0  0
    1.4875    1.3057   -0.1216 C   0  0  0  0  0  0  0  0  0  0  0  0
    1.7875    0.1188   -0.8004 C   0  0  0  0  0  0  0  0  0  0  0  0
    1.5578   -0.0353   -2.1352 N   0  0  0  0  0  0  0  0  0  0  0  0
    0.9845    1.0065   -2.7804 C   0  0  0  0  0  0  0  0  0  0  0  0
    0.6467    2.2026   -2.1686 C   0  0  0  0  0  0  0  0  0  0  0  0
    0.0955    3.1876   -2.8911 F   0  0  0  0  0  0  0  0  0  0  0  0
    4.4686   -1.7102    0.3920 H   0  0  0  0  0  0  0  0  0  0  0  0
    4.3155    0.0517    0.2782 H   0  0  0  0  0  0  0  0  0  0  0  0
    4.3089   -0.9374   -1.1901 H   0  0  0  0  0  0  0  0  0  0  0  0
    2.1843   -0.9812    1.0219 H   0  0  0  0  0  0  0  0  0  0  0  0
    2.2852   -2.4222   -1.5889 H   0  0  0  0  0  0  0  0  0  0  0  0
   -2.2590   -4.6583    1.0172 H   0  0  0  0  0  0  0  0  0  0  0  0
   -2.5154   -2.5937    2.4672 H   0  0  0  0  0  0  0  0  0  0  0  0
   -1.3502   -0.1201   -0.2554 H   0  0  0  0  0  0  0  0  0  0  0  0
   -3.8449    1.7436    2.5629 H   0  0  0  0  0  0  0  0  0  0  0  0
   -3.6079    2.8654   -0.0965 H   0  0  0  0  0  0  0  0  0  0  0  0
   -2.0522    2.4999   -0.8001 H   0  0  0  0  0  0  0  0  0  0  0  0
   -2.5527    3.9256    1.8698 H   0  0  0  0  0  0  0  0  0  0  0  0
   -2.0617    4.7000    0.3739 H   0  0  0  0  0  0  0  0  0  0  0  0
    0.0295    4.3563   -0.8015 H   0  0  0  0  0  0  0  0  0  0  0  0
    1.5706    4.1953    0.0200 H   0  0  0  0  0  0  0  0  0  0  0  0
    1.7137    1.3900    0.9389 H   0  0  0  0  0  0  0  0  0  0  0  0
    0.8012    0.8594   -3.8398 H   0  0  0  0  0  0  0  0  0  0  0  0
  1  2  1  0
  2  3  1  0
  3  4  1  0
  4  5  1  0
  5  6  2  0
  6  7  1  0
  7  8  2  0
  8  9  1  0
  9 10  1  0
 10 11  3  0
  6 12  1  0
 12 13  1  0
 13 14  1  0
 14 15  2  0
 15 16  1  0
 16 17  1  0
 15 18  1  0
 18 19  1  0
 19 20  1  0
 20 21  1  0
 21 22  1  0
 22 23  1  0
 23 24  2  0
 24 25  1  0
 25 26  2  0
 26 27  1  0
 27 28  1  0
 24  2  1  0
  9  4  2  0
 17 13  2  0
 27 22  2  0
  1 29  1  0
  1 30  1  0
  1 31  1  0
  2 32  1  1
  3 33  1  0
  7 34  1  0
 12 35  1  0
 14 36  1  0
 16 37  1  0
 18 38  1  0
 18 39  1  0
 19 40  1  0
 19 41  1  0
 21 42  1  0
 21 43  1  0
 23 44  1  0
 26 45  1  0
M  END
>  <candidate_id>  (139) 
CAND_edf26a0208

>  <source_generator>  (139) 
macrocycle_linker

>  <parent_mol_id>  (139) 
JAK2_c57d118ac8

>  <canonical_smiles>  (139) 
C[C@@H]1Nc2nc(cnc2C#N)Nc2cc([nH]n2)CCSCc2cc1ncc2F

>  <inchikey>  (139) 
WWCQQMWDSZGCMR-JTQLQIEISA-N

>  <valid_rdkit>  (139) 
True

>  <unique_flag>  (139) 
True

>  <novel_flag>  (139) 
True

>  <mw>  (139) 
396.455

>  <logp>  (139) 
3.3115

>  <tpsa>  (139) 
115.2

>  <hbd>  (139) 
3

>  <hba>  (139) 
8

>  <rotatable_bonds>  (139) 
0

>  <qed>  (139) 
0.5301

>  <sa_score>  (139) 
3.708

>  <murcko_scaffold>  (139) 
c1cc2cc(n1)CNc1cncc(n1)Nc1cc([nH]n1)CCSC2

>  <max_ring_size>  (139) 
16

>  <has_macrocycle_12_20>  (139) 
True

>  <has_constrained_ring_8_11>  (139) 
False

>  <passes_basic_filters>  (139) 
True

>  <generation_notes>  (139) 
macrocycle_bridge_thioether_path12_ring15

>  <best_score>  (139) 
nan

>  <qed_admet>  (139) 
0.5301

>  <sa_score_admet>  (139) 
3.708

>  <mw_admet>  (139) 
396.455

>  <logp_admet>  (139) 
3.3115

>  <tpsa_admet>  (139) 
115.2

>  <hbd_admet>  (139) 
3

>  <hba_admet>  (139) 
8

>  <rotatable_bonds_admet>  (139) 
0

>  <lipinski_violations>  (139) 
0

>  <veber_pass>  (139) 
True

>  <admet_score>  (139) 
0.788545

>  <synthesis_score>  (139) 
0.699111

>  <safety_proxy_score>  (139) 
1.0

>  <main_risk>  (139) 
no_major_descriptor_risk

>  <pose_score>  (139) 
0.5

>  <pose_decision>  (139) 
nan

>  <contacts_within_4A>  (139) 
nan

>  <hard_clashes_lt_1_8A>  (139) 
nan

>  <smiles>  (139) 
C[C@@H]1Nc2nc(cnc2C#N)Nc2cc([nH]n2)CCSCc2cc1ncc2F

>  <docking_score>  (139) 
nan

>  <diversity_cluster>  (139) 
scaffold_aa8c039b

>  <docking_score_scaled>  (139) 
0.0

>  <novelty_score>  (139) 
1.0

>  <final_weighted_score>  (139) 
0.487576

>  <rank>  (139) 
1836

>  <decision>  (139) 
await_docking

>  <diverse_rank>  (139) 
1155

>  <selection_tier>  (139) 
await_docking

$$$$
CAND_39d55ed837
     RDKit          3D

 60 65  0  0  0  0  0  0  0  0999 V2000
   -1.6314   -4.8448   -3.6411 N   0  0  0  0  0  0  0  0  0  0  0  0
   -1.9196   -3.9927   -2.9084 C   0  0  0  0  0  0  0  0  0  0  0  0
   -2.2865   -2.9120   -1.9946 C   0  0  2  0  0  0  0  0  0  0  0  0
   -2.2147   -1.5303   -2.6422 C   0  0  0  0  0  0  0  0  0  0  0  0
   -2.2018   -0.5877   -1.4440 C   0  0  0  0  0  0  0  0  0  0  0  0
   -1.7204   -1.3901   -0.3241 N   0  0  0  0  0  0  0  0  0  0  0  0
   -1.7919   -1.0371    1.0183 C   0  0  0  0  0  0  0  0  0  0  0  0
   -1.5808   -1.8764    1.8977 O   0  0  0  0  0  0  0  0  0  0  0  0
   -2.1995    0.4278    1.3674 C   0  0  1  0  0  0  0  0  0  0  0  0
   -2.2202    0.6862    2.8533 C   0  0  0  0  0  0  0  0  0  0  0  0
   -3.4889    0.5000    3.6497 C   0  0  0  0  0  0  0  0  0  0  0  0
   -2.9498    1.8833    3.4154 C   0  0  0  0  0  0  0  0  0  0  0  0
   -1.2400    1.3377    0.7714 N   0  0  0  0  0  0  0  0  0  0  0  0
   -1.5848    2.4669    0.0746 C   0  0  0  0  0  0  0  0  0  0  0  0
   -2.7368    2.8735   -0.0284 O   0  0  0  0  0  0  0  0  0  0  0  0
   -0.4668    3.0983   -0.6131 C   0  0  0  0  0  0  0  0  0  0  0  0
   -0.5301    4.2463   -1.3927 C   0  0  0  0  0  0  0  0  0  0  0  0
    0.7106    4.4719   -1.9414 N   0  0  0  0  0  0  0  0  0  0  0  0
    1.5687    3.4830   -1.5504 C   0  0  0  0  0  0  0  0  0  0  0  0
    2.8475    3.3339   -1.9418 N   0  0  0  0  0  0  0  0  0  0  0  0
    3.3937    2.2225   -1.3711 C   0  0  0  0  0  0  0  0  0  0  0  0
    2.7543    1.3532   -0.4711 C   0  0  0  0  0  0  0  0  0  0  0  0
    1.4621    1.5625   -0.1136 N   0  0  0  0  0  0  0  0  0  0  0  0
    0.8767    2.6441   -0.6909 C   0  0  0  0  0  0  0  0  0  0  0  0
    3.4548    0.1306    0.1307 C   0  0  0  0  0  0  0  0  0  0  0  0
    2.8554   -1.2165   -0.2761 C   0  0  0  0  0  0  0  0  0  0  0  0
    1.6536   -1.6203    0.5938 C   0  0  0  0  0  0  0  0  0  0  0  0
    1.0350   -2.9611    0.1901 C   0  0  0  0  0  0  0  0  0  0  0  0
    0.1374   -2.9051   -1.0553 C   0  0  0  0  0  0  0  0  0  0  0  0
   -1.3801   -2.7540   -0.7579 C   0  0  0  0  0  0  0  0  0  0  0  0
    4.9530    0.1797    0.4140 C   0  0  0  0  0  0  0  0  0  0  0  0
    3.9887    0.2661    1.5526 C   0  0  0  0  0  0  0  0  0  0  0  0
   -3.3182   -3.0746   -1.6513 H   0  0  0  0  0  0  0  0  0  0  0  0
   -3.0557   -1.3304   -3.3141 H   0  0  0  0  0  0  0  0  0  0  0  0
   -1.2944   -1.4108   -3.2279 H   0  0  0  0  0  0  0  0  0  0  0  0
   -1.5296    0.2537   -1.6226 H   0  0  0  0  0  0  0  0  0  0  0  0
   -3.2048   -0.2154   -1.2150 H   0  0  0  0  0  0  0  0  0  0  0  0
   -3.1934    0.6079    0.9420 H   0  0  0  0  0  0  0  0  0  0  0  0
   -1.2873    0.4023    3.3306 H   0  0  0  0  0  0  0  0  0  0  0  0
   -4.3965    0.2149    3.1302 H   0  0  0  0  0  0  0  0  0  0  0  0
   -3.3998    0.0788    4.6449 H   0  0  0  0  0  0  0  0  0  0  0  0
   -2.4974    2.4035    4.2520 H   0  0  0  0  0  0  0  0  0  0  0  0
   -3.4890    2.5308    2.7322 H   0  0  0  0  0  0  0  0  0  0  0  0
   -0.2551    1.0854    0.8195 H   0  0  0  0  0  0  0  0  0  0  0  0
   -1.3623    4.9031   -1.6141 H   0  0  0  0  0  0  0  0  0  0  0  0
    0.9623    5.2229   -2.5685 H   0  0  0  0  0  0  0  0  0  0  0  0
    4.4210    2.0364   -1.6719 H   0  0  0  0  0  0  0  0  0  0  0  0
    3.6206   -1.9996   -0.2020 H   0  0  0  0  0  0  0  0  0  0  0  0
    2.5655   -1.1741   -1.3327 H   0  0  0  0  0  0  0  0  0  0  0  0
    1.9845   -1.7065    1.6354 H   0  0  0  0  0  0  0  0  0  0  0  0
    0.8940   -0.8389    0.5807 H   0  0  0  0  0  0  0  0  0  0  0  0
    0.4698   -3.3707    1.0350 H   0  0  0  0  0  0  0  0  0  0  0  0
    1.8494   -3.6732    0.0043 H   0  0  0  0  0  0  0  0  0  0  0  0
    0.2894   -3.8596   -1.5729 H   0  0  0  0  0  0  0  0  0  0  0  0
    0.4800   -2.1216   -1.7400 H   0  0  0  0  0  0  0  0  0  0  0  0
   -1.6692   -3.4814    0.0103 H   0  0  0  0  0  0  0  0  0  0  0  0
    5.5282    1.0720    0.1941 H   0  0  0  0  0  0  0  0  0  0  0  0
    5.5334   -0.7318    0.3143 H   0  0  0  0  0  0  0  0  0  0  0  0
    3.9331   -0.5824    2.2252 H   0  0  0  0  0  0  0  0  0  0  0  0
    3.8743    1.2202    2.0571 H   0  0  0  0  0  0  0  0  0  0  0  0
  1  2  3  0
  2  3  1  0
  3  4  1  0
  4  5  1  0
  5  6  1  0
  6  7  1  0
  7  8  2  0
  7  9  1  0
  9 10  1  0
 10 11  1  0
 11 12  1  0
  9 13  1  0
 13 14  1  0
 14 15  2  0
 14 16  1  0
 16 17  2  0
 17 18  1  0
 18 19  1  0
 19 20  2  0
 20 21  1  0
 21 22  2  0
 22 23  1  0
 23 24  2  0
 22 25  1  0
 25 26  1  0
 26 27  1  0
 27 28  1  0
 28 29  1  0
 29 30  1  0
 25 31  1  0
 31 32  1  0
 30  3  1  0
 30  6  1  0
 12 10  1  0
 24 16  1  0
 32 25  1  0
 24 19  1  0
  3 33  1  1
  4 34  1  0
  4 35  1  0
  5 36  1  0
  5 37  1  0
  9 38  1  6
 10 39  1  0
 11 40  1  0
 11 41  1  0
 12 42  1  0
 12 43  1  0
 13 44  1  0
 17 45  1  0
 18 46  1  0
 21 47  1  0
 26 48  1  0
 26 49  1  0
 27 50  1  0
 27 51  1  0
 28 52  1  0
 28 53  1  0
 29 54  1  0
 29 55  1  0
 30 56  1  0
 31 57  1  0
 31 58  1  0
 32 59  1  0
 32 60  1  0
M  END
>  <candidate_id>  (140) 
CAND_39d55ed837

>  <source_generator>  (140) 
macrocycle_linker

>  <parent_mol_id>  (140) 
JAK2_69b6c7ad6e

>  <canonical_smiles>  (140) 
N#C[C@@H]1CCN2C(=O)[C@@H](C3CC3)NC(=O)c3c[nH]c4ncc(nc34)C3(CCCCC12)CC3

>  <inchikey>  (140) 
SIXYPODUIXSUGZ-APROBQCTSA-N

>  <valid_rdkit>  (140) 
True

>  <unique_flag>  (140) 
True

>  <novel_flag>  (140) 
True

>  <mw>  (140) 
432.528

>  <logp>  (140) 
2.8126

>  <tpsa>  (140) 
114.77

>  <hbd>  (140) 
2

>  <hba>  (140) 
5

>  <rotatable_bonds>  (140) 
1

>  <qed>  (140) 
0.7191

>  <sa_score>  (140) 
4.733

>  <murcko_scaffold>  (140) 
O=C1N[C@H](C2CC2)C(=O)N2CCCC2CCCCC2(CC2)c2cnc3[nH]cc1c3n2

>  <max_ring_size>  (140) 
15

>  <has_macrocycle_12_20>  (140) 
True

>  <has_constrained_ring_8_11>  (140) 
False

>  <passes_basic_filters>  (140) 
True

>  <generation_notes>  (140) 
macrocycle_bridge_oxa_aza_path10_ring14

>  <best_score>  (140) 
nan

>  <qed_admet>  (140) 
0.7191

>  <sa_score_admet>  (140) 
4.733

>  <mw_admet>  (140) 
432.528

>  <logp_admet>  (140) 
2.8126

>  <tpsa_admet>  (140) 
114.77

>  <hbd_admet>  (140) 
2

>  <hba_admet>  (140) 
5

>  <rotatable_bonds_admet>  (140) 
1

>  <lipinski_violations>  (140) 
0

>  <veber_pass>  (140) 
True

>  <admet_score>  (140) 
0.873595

>  <synthesis_score>  (140) 
0.585222

>  <safety_proxy_score>  (140) 
1.0

>  <main_risk>  (140) 
no_major_descriptor_risk

>  <pose_score>  (140) 
0.5

>  <pose_decision>  (140) 
nan

>  <contacts_within_4A>  (140) 
nan

>  <hard_clashes_lt_1_8A>  (140) 
nan

>  <smiles>  (140) 
N#C[C@@H]1CCN2C(=O)[C@@H](C3CC3)NC(=O)c3c[nH]c4ncc(nc34)C3(CCCCC12)CC3

>  <docking_score>  (140) 
nan

>  <diversity_cluster>  (140) 
scaffold_a1fbea16

>  <docking_score_scaled>  (140) 
0.0

>  <novelty_score>  (140) 
1.0

>  <final_weighted_score>  (140) 
0.487502

>  <rank>  (140) 
1839

>  <decision>  (140) 
await_docking

>  <diverse_rank>  (140) 
1158

>  <selection_tier>  (140) 
await_docking

$$$$
CAND_b7fa23672c
     RDKit          3D

 58 63  0  0  0  0  0  0  0  0999 V2000
   -5.2402   -1.7987   -3.3003 N   0  0  0  0  0  0  0  0  0  0  0  0
   -5.0730   -1.3363   -2.2499 C   0  0  0  0  0  0  0  0  0  0  0  0
   -4.8596   -0.7507   -0.9276 C   0  0  2  0  0  0  0  0  0  0  0  0
   -3.7479    0.3013   -0.9106 C   0  0  0  0  0  0  0  0  0  0  0  0
   -3.3154    0.3311    0.4834 N   0  0  0  0  0  0  0  0  0  0  0  0
   -3.9519   -0.7269    1.2420 C   0  0  0  0  0  0  0  0  0  0  0  0
   -4.3941   -1.7342    0.1731 C   0  0  0  0  0  0  0  0  0  0  0  0
   -3.3046   -2.7331   -0.3214 C   0  0  0  0  0  0  0  0  0  0  0  0
   -2.1409   -3.0231    0.6239 C   0  0  0  0  0  0  0  0  0  0  0  0
   -1.1477   -2.0115    0.4413 O   0  0  0  0  0  0  0  0  0  0  0  0
   -0.1655   -2.0331    1.4737 C   0  0  0  0  0  0  0  0  0  0  0  0
    1.1023   -1.5640    0.8525 C   0  0  0  0  0  0  0  0  0  0  0  0
    2.0992   -2.4452    0.4949 N   0  0  0  0  0  0  0  0  0  0  0  0
    3.1763   -1.7616    0.0105 C   0  0  0  0  0  0  0  0  0  0  0  0
    4.3231   -2.3168   -0.4217 N   0  0  0  0  0  0  0  0  0  0  0  0
    5.1854   -1.3512   -0.8429 C   0  0  0  0  0  0  0  0  0  0  0  0
    4.9435    0.0325   -0.8510 C   0  0  0  0  0  0  0  0  0  0  0  0
    5.9557    1.0525   -1.3401 C   0  0  0  0  0  0  0  0  0  0  0  0
    6.8551    0.7816   -2.5228 C   0  0  0  0  0  0  0  0  0  0  0  0
    7.4416    0.8691   -1.1421 C   0  0  0  0  0  0  0  0  0  0  0  0
    3.7568    0.5245   -0.4106 N   0  0  0  0  0  0  0  0  0  0  0  0
    2.8754   -0.4064    0.0373 C   0  0  0  0  0  0  0  0  0  0  0  0
    1.5621   -0.2785    0.5570 C   0  0  0  0  0  0  0  0  0  0  0  0
    0.8142    0.9477    0.7576 C   0  0  0  0  0  0  0  0  0  0  0  0
    1.1352    1.7785    1.5938 O   0  0  0  0  0  0  0  0  0  0  0  0
   -0.2757    1.0225   -0.0765 N   0  0  0  0  0  0  0  0  0  0  0  0
   -1.4178    1.9065    0.1183 C   0  0  2  0  0  0  0  0  0  0  0  0
   -1.0421    3.3238    0.4464 C   0  0  0  0  0  0  0  0  0  0  0  0
   -2.1090    4.3349    0.8006 C   0  0  0  0  0  0  0  0  0  0  0  0
   -1.0833    3.9400    1.8251 C   0  0  0  0  0  0  0  0  0  0  0  0
   -2.3514    1.1332    1.0766 C   0  0  0  0  0  0  0  0  0  0  0  0
   -2.1697    1.0718    2.2946 O   0  0  0  0  0  0  0  0  0  0  0  0
   -5.7954   -0.2788   -0.5959 H   0  0  0  0  0  0  0  0  0  0  0  0
   -4.1010    1.2927   -1.2122 H   0  0  0  0  0  0  0  0  0  0  0  0
   -2.8922    0.0260   -1.5374 H   0  0  0  0  0  0  0  0  0  0  0  0
   -4.8260   -0.2840    1.7361 H   0  0  0  0  0  0  0  0  0  0  0  0
   -3.3046   -1.1264    2.0246 H   0  0  0  0  0  0  0  0  0  0  0  0
   -5.2394   -2.3225    0.5513 H   0  0  0  0  0  0  0  0  0  0  0  0
   -3.8186   -3.6802   -0.5324 H   0  0  0  0  0  0  0  0  0  0  0  0
   -2.8804   -2.4009   -1.2764 H   0  0  0  0  0  0  0  0  0  0  0  0
   -2.4701   -3.0894    1.6663 H   0  0  0  0  0  0  0  0  0  0  0  0
   -1.6867   -3.9826    0.3502 H   0  0  0  0  0  0  0  0  0  0  0  0
   -0.4822   -1.3679    2.2832 H   0  0  0  0  0  0  0  0  0  0  0  0
   -0.0378   -3.0434    1.8815 H   0  0  0  0  0  0  0  0  0  0  0  0
    2.0719   -3.4510    0.5797 H   0  0  0  0  0  0  0  0  0  0  0  0
    6.1347   -1.7415   -1.1981 H   0  0  0  0  0  0  0  0  0  0  0  0
    5.6059    2.0816   -1.2532 H   0  0  0  0  0  0  0  0  0  0  0  0
    7.0419    1.6026   -3.2072 H   0  0  0  0  0  0  0  0  0  0  0  0
    6.8238   -0.1863   -3.0084 H   0  0  0  0  0  0  0  0  0  0  0  0
    7.8132   -0.0377   -0.6808 H   0  0  0  0  0  0  0  0  0  0  0  0
    8.0244    1.7497   -0.8919 H   0  0  0  0  0  0  0  0  0  0  0  0
   -0.4310    0.2116   -0.6624 H   0  0  0  0  0  0  0  0  0  0  0  0
   -1.8870    1.9635   -0.8678 H   0  0  0  0  0  0  0  0  0  0  0  0
   -0.2507    3.6706   -0.2132 H   0  0  0  0  0  0  0  0  0  0  0  0
   -2.0317    5.3267    0.3692 H   0  0  0  0  0  0  0  0  0  0  0  0
   -3.1269    4.0016    0.9653 H   0  0  0  0  0  0  0  0  0  0  0  0
   -1.3933    3.3400    2.6715 H   0  0  0  0  0  0  0  0  0  0  0  0
   -0.2970    4.6454    2.0733 H   0  0  0  0  0  0  0  0  0  0  0  0
  1  2  3  0
  2  3  1  0
  3  4  1  0
  4  5  1  0
  5  6  1  0
  6  7  1  0
  7  8  1  0
  8  9  1  0
  9 10  1  0
 10 11  1  0
 11 12  1  0
 12 13  1  0
 13 14  1  0
 14 15  2  0
 15 16  1  0
 16 17  2  0
 17 18  1  0
 18 19  1  0
 19 20  1  0
 17 21  1  0
 21 22  2  0
 22 23  1  0
 23 24  1  0
 24 25  2  0
 24 26  1  0
 26 27  1  0
 27 28  1  0
 28 29  1  0
 29 30  1  0
 27 31  1  0
 31 32  2  0
  7  3  1  0
 23 12  2  0
 30 28  1  0
 31  5  1  0
 22 14  1  0
 20 18  1  0
  3 33  1  1
  4 34  1  0
  4 35  1  0
  6 36  1  0
  6 37  1  0
  7 38  1  0
  8 39  1  0
  8 40  1  0
  9 41  1  0
  9 42  1  0
 11 43  1  0
 11 44  1  0
 13 45  1  0
 16 46  1  0
 18 47  1  0
 19 48  1  0
 19 49  1  0
 20 50  1  0
 20 51  1  0
 26 52  1  0
 27 53  1  6
 28 54  1  0
 29 55  1  0
 29 56  1  0
 30 57  1  0
 30 58  1  0
M  END
>  <candidate_id>  (141) 
CAND_b7fa23672c

>  <source_generator>  (141) 
macrocycle_linker

>  <parent_mol_id>  (141) 
JAK2_9dcdbe0544

>  <canonical_smiles>  (141) 
N#C[C@@H]1CN2CC1CCOCc1[nH]c3ncc(C4CC4)nc3c1C(=O)N[C@H](C1CC1)C2=O

>  <inchikey>  (141) 
JWSWZQAVBHYAMH-PQYJZYHDSA-N

>  <valid_rdkit>  (141) 
True

>  <unique_flag>  (141) 
True

>  <novel_flag>  (141) 
True

>  <mw>  (141) 
434.5

>  <logp>  (141) 
1.8622

>  <tpsa>  (141) 
124.0

>  <hbd>  (141) 
2

>  <hba>  (141) 
6

>  <rotatable_bonds>  (141) 
2

>  <qed>  (141) 
0.7435

>  <sa_score>  (141) 
4.869

>  <murcko_scaffold>  (141) 
O=C1N[C@H](C2CC2)C(=O)N2CCC(CCOCc3[nH]c4ncc(C5CC5)nc4c31)C2

>  <max_ring_size>  (141) 
13

>  <has_macrocycle_12_20>  (141) 
True

>  <has_constrained_ring_8_11>  (141) 
False

>  <passes_basic_filters>  (141) 
True

>  <generation_notes>  (141) 
macrocycle_bridge_oxa_path8_ring12

>  <best_score>  (141) 
nan

>  <qed_admet>  (141) 
0.7435

>  <sa_score_admet>  (141) 
4.869

>  <mw_admet>  (141) 
434.5

>  <logp_admet>  (141) 
1.8622

>  <tpsa_admet>  (141) 
124.0

>  <hbd_admet>  (141) 
2

>  <hba_admet>  (141) 
6

>  <rotatable_bonds_admet>  (141) 
2

>  <lipinski_violations>  (141) 
0

>  <veber_pass>  (141) 
True

>  <admet_score>  (141) 
0.884575

>  <synthesis_score>  (141) 
0.570111

>  <safety_proxy_score>  (141) 
1.0

>  <main_risk>  (141) 
no_major_descriptor_risk

>  <pose_score>  (141) 
0.5

>  <pose_decision>  (141) 
nan

>  <contacts_within_4A>  (141) 
nan

>  <hard_clashes_lt_1_8A>  (141) 
nan

>  <smiles>  (141) 
N#C[C@@H]1CN2CC1CCOCc1[nH]c3ncc(C4CC4)nc3c1C(=O)N[C@H](C1CC1)C2=O

>  <docking_score>  (141) 
nan

>  <diversity_cluster>  (141) 
scaffold_301a7b83

>  <docking_score_scaled>  (141) 
0.0

>  <novelty_score>  (141) 
1.0

>  <final_weighted_score>  (141) 
0.487432

>  <rank>  (141) 
1843

>  <decision>  (141) 
await_docking

>  <diverse_rank>  (141) 
1161

>  <selection_tier>  (141) 
await_docking

$$$$
CAND_2e664eff89
     RDKit          3D

 40 42  0  0  0  0  0  0  0  0999 V2000
   -5.1824    3.4784    0.3308 O   0  0  0  0  0  0  0  0  0  0  0  0
   -5.0770    2.4076   -0.2795 N   0  0  0  0  0  0  0  0  0  0  0  0
   -3.7857    1.6960    0.0295 C   0  0  0  0  0  0  0  0  0  0  0  0
   -4.1312    0.3721    0.7393 C   0  0  0  0  0  0  0  0  0  0  0  0
   -2.9230   -0.3238    1.3838 C   0  0  0  0  0  0  0  0  0  0  0  0
   -2.2625   -1.3716    0.4804 C   0  0  0  0  0  0  0  0  0  0  0  0
   -1.0401   -1.9458    1.1427 C   0  0  0  0  0  0  0  0  0  0  0  0
    0.2289   -1.9573    0.7041 C   0  0  0  0  0  0  0  0  0  0  0  0
    0.6753   -1.3963   -0.6048 C   0  0  0  0  0  0  0  0  0  0  0  0
    2.0422   -1.9406   -1.0853 C   0  0  0  0  0  0  0  0  0  0  0  0
    2.6420   -0.6894   -0.4110 C   0  0  1  0  0  0  0  0  0  0  0  0
    3.6809    0.1249   -1.1324 C   0  0  0  0  0  0  0  0  0  0  0  0
    4.4552    1.2391   -0.4791 C   0  0  0  0  0  0  0  0  0  0  0  0
    5.1583   -0.0259   -0.8848 C   0  0  0  0  0  0  0  0  0  0  0  0
    1.3339   -0.1144   -0.5497 N   0  0  0  0  0  0  0  0  0  0  0  0
    0.8908    0.8765    0.2814 C   0  0  0  0  0  0  0  0  0  0  0  0
   -0.0407    1.7620    0.1131 N   0  0  0  0  0  0  0  0  0  0  0  0
   -0.6359    1.7690   -1.1191 C   0  0  0  0  0  0  0  0  0  0  0  0
   -1.9248    1.6295   -1.1977 C   0  0  0  0  0  0  0  0  0  0  0  0
   -3.0817    1.4321   -1.2378 N   0  0  0  0  0  0  0  0  0  0  0  0
   -3.2113    2.3468    0.7060 H   0  0  0  0  0  0  0  0  0  0  0  0
   -4.6489   -0.3151    0.0573 H   0  0  0  0  0  0  0  0  0  0  0  0
   -4.8426    0.5932    1.5475 H   0  0  0  0  0  0  0  0  0  0  0  0
   -2.1911    0.4201    1.7207 H   0  0  0  0  0  0  0  0  0  0  0  0
   -3.2745   -0.8353    2.2904 H   0  0  0  0  0  0  0  0  0  0  0  0
   -2.0264   -0.9546   -0.4980 H   0  0  0  0  0  0  0  0  0  0  0  0
   -2.9705   -2.1901    0.3012 H   0  0  0  0  0  0  0  0  0  0  0  0
   -1.2309   -2.4136    2.1096 H   0  0  0  0  0  0  0  0  0  0  0  0
    0.9809   -2.4286    1.3336 H   0  0  0  0  0  0  0  0  0  0  0  0
   -0.0859   -1.4362   -1.3907 H   0  0  0  0  0  0  0  0  0  0  0  0
    2.3707   -2.8997   -0.6735 H   0  0  0  0  0  0  0  0  0  0  0  0
    2.1500   -1.9751   -2.1766 H   0  0  0  0  0  0  0  0  0  0  0  0
    2.9083   -0.8632    0.6420 H   0  0  0  0  0  0  0  0  0  0  0  0
    3.3713    0.2824   -2.1622 H   0  0  0  0  0  0  0  0  0  0  0  0
    4.6395    2.1354   -1.0609 H   0  0  0  0  0  0  0  0  0  0  0  0
    4.3083    1.4222    0.5792 H   0  0  0  0  0  0  0  0  0  0  0  0
    5.8236    0.0156   -1.7401 H   0  0  0  0  0  0  0  0  0  0  0  0
    5.4887   -0.6950   -0.0985 H   0  0  0  0  0  0  0  0  0  0  0  0
    1.4442    0.9084    1.2370 H   0  0  0  0  0  0  0  0  0  0  0  0
   -0.0256    1.8603   -2.0113 H   0  0  0  0  0  0  0  0  0  0  0  0
  1  2  2  0
  2  3  1  0
  3  4  1  0
  4  5  1  0
  5  6  1  0
  6  7  1  0
  7  8  2  3
  8  9  1  0
  9 10  1  0
 10 11  1  0
 11 12  1  0
 12 13  1  0
 13 14  1  0
 11 15  1  0
 15 16  1  0
 16 17  2  3
 17 18  1  0
 18 19  2  0
 19 20  2  0
 20  3  1  0
 15  9  1  0
 14 12  1  0
  3 21  1  0
  4 22  1  0
  4 23  1  0
  5 24  1  0
  5 25  1  0
  6 26  1  0
  6 27  1  0
  7 28  1  0
  8 29  1  0
  9 30  1  0
 10 31  1  0
 10 32  1  0
 11 33  1  1
 12 34  1  0
 13 35  1  0
 13 36  1  0
 14 37  1  0
 14 38  1  0
 16 39  1  0
 18 40  1  0
M  END
>  <candidate_id>  (142) 
CAND_2e664eff89

>  <source_generator>  (142) 
selfies

>  <parent_mol_id>  (142) 
JAK2_ec117125df

>  <canonical_smiles>  (142) 
O=NC1CCCC=CC2C[C@@H](C3CC3)N2C=NC=C=N1

>  <inchikey>  (142) 
NYZBGHWFGORJPX-SLTAFYQDSA-N

>  <valid_rdkit>  (142) 
True

>  <unique_flag>  (142) 
True

>  <novel_flag>  (142) 
True

>  <mw>  (142) 
272.352

>  <logp>  (142) 
2.8836

>  <tpsa>  (142) 
57.39

>  <hbd>  (142) 
0

>  <hba>  (142) 
5

>  <rotatable_bonds>  (142) 
2

>  <qed>  (142) 
0.573

>  <sa_score>  (142) 
3.95

>  <murcko_scaffold>  (142) 
C1=CN=CN2C(C=CCCCCN=1)C[C@H]2C1CC1

>  <max_ring_size>  (142) 
13

>  <has_macrocycle_12_20>  (142) 
True

>  <has_constrained_ring_8_11>  (142) 
False

>  <passes_basic_filters>  (142) 
True

>  <generation_notes>  (142) 
selfies_token_mutation

>  <best_score>  (142) 
nan

>  <qed_admet>  (142) 
0.573

>  <sa_score_admet>  (142) 
3.95

>  <mw_admet>  (142) 
272.352

>  <logp_admet>  (142) 
2.8836

>  <tpsa_admet>  (142) 
57.39

>  <hbd_admet>  (142) 
0

>  <hba_admet>  (142) 
5

>  <rotatable_bonds_admet>  (142) 
2

>  <lipinski_violations>  (142) 
0

>  <veber_pass>  (142) 
True

>  <admet_score>  (142) 
0.80785

>  <synthesis_score>  (142) 
0.672222

>  <safety_proxy_score>  (142) 
1.0

>  <main_risk>  (142) 
no_major_descriptor_risk

>  <pose_score>  (142) 
0.5

>  <pose_decision>  (142) 
nan

>  <contacts_within_4A>  (142) 
nan

>  <hard_clashes_lt_1_8A>  (142) 
nan

>  <smiles>  (142) 
O=NC1CCCC=CC2C[C@@H](C3CC3)N2C=NC=C=N1

>  <docking_score>  (142) 
nan

>  <diversity_cluster>  (142) 
scaffold_168dfd55

>  <docking_score_scaled>  (142) 
0.0

>  <novelty_score>  (142) 
1.0

>  <final_weighted_score>  (142) 
0.487403

>  <rank>  (142) 
1845

>  <decision>  (142) 
await_docking

>  <diverse_rank>  (142) 
1163

>  <selection_tier>  (142) 
await_docking

$$$$
CAND_e1574bf927
     RDKit          3D

 42 44  0  0  0  0  0  0  0  0999 V2000
   -0.2191   -2.5663   -2.7163 C   0  0  0  0  0  0  0  0  0  0  0  0
   -0.1430   -2.8954   -1.3295 O   0  0  0  0  0  0  0  0  0  0  0  0
   -0.1665   -1.7557   -0.5420 C   0  0  0  0  0  0  0  0  0  0  0  0
   -1.3253   -1.1479   -0.1931 C   0  0  0  0  0  0  0  0  0  0  0  0
   -2.5133   -1.7123   -0.6815 O   0  0  0  0  0  0  0  0  0  0  0  0
   -3.1937   -2.4061    0.3628 C   0  0  0  0  0  0  0  0  0  0  0  0
   -1.4590    0.1270    0.6264 C   0  0  0  0  0  0  0  0  0  0  0  0
   -0.7568    0.3145    1.9029 O   0  0  0  0  0  0  0  0  0  0  0  0
   -0.4551   -0.8523    2.5624 C   0  0  0  0  0  0  0  0  0  0  0  0
    0.6185   -1.6105    2.2933 C   0  0  0  0  0  0  0  0  0  0  0  0
    1.5521   -1.2994    1.2165 C   0  0  0  0  0  0  0  0  0  0  0  0
    1.1509   -1.3815   -0.0698 C   0  0  0  0  0  0  0  0  0  0  0  0
    2.7864   -0.8101    1.6304 N   0  0  0  0  0  0  0  0  0  0  0  0
    3.4128    0.2885    1.0832 C   0  0  0  0  0  0  0  0  0  0  0  0
    3.4542    0.6612   -0.1585 N   0  0  0  0  0  0  0  0  0  0  0  0
    3.5998    2.0094   -0.2846 N   0  0  0  0  0  0  0  0  0  0  0  0
    2.5161    2.8535   -0.1116 C   0  0  0  0  0  0  0  0  0  0  0  0
    1.2417    2.4412   -0.0169 C   0  0  0  0  0  0  0  0  0  0  0  0
    0.0966    3.2303    0.3428 C   0  0  0  0  0  0  0  0  0  0  0  0
   -1.1651    2.7658    0.3334 C   0  0  0  0  0  0  0  0  0  0  0  0
   -1.7085    1.4637   -0.1661 C   0  0  0  0  0  0  0  0  0  0  0  0
   -1.9758    1.4071   -1.6575 C   0  0  0  0  0  0  0  0  0  0  0  0
   -3.1390    2.6715   -2.1503 Cl  0  0  0  0  0  0  0  0  0  0  0  0
   -2.7301    0.8122    0.6019 O   0  0  0  0  0  0  0  0  0  0  0  0
   -0.1552   -3.4980   -3.2861 H   0  0  0  0  0  0  0  0  0  0  0  0
    0.6180   -1.9261   -3.0153 H   0  0  0  0  0  0  0  0  0  0  0  0
   -1.1703   -2.0830   -2.9619 H   0  0  0  0  0  0  0  0  0  0  0  0
   -4.0809   -2.8773   -0.0701 H   0  0  0  0  0  0  0  0  0  0  0  0
   -2.5621   -3.1945    0.7868 H   0  0  0  0  0  0  0  0  0  0  0  0
   -3.5240   -1.7208    1.1497 H   0  0  0  0  0  0  0  0  0  0  0  0
   -1.1530   -1.0443    3.3658 H   0  0  0  0  0  0  0  0  0  0  0  0
    0.8299   -2.4933    2.8888 H   0  0  0  0  0  0  0  0  0  0  0  0
    1.8642   -1.1645   -0.8616 H   0  0  0  0  0  0  0  0  0  0  0  0
    2.9556   -0.9471    2.6203 H   0  0  0  0  0  0  0  0  0  0  0  0
    3.7797    0.9582    1.8848 H   0  0  0  0  0  0  0  0  0  0  0  0
    4.3904    2.3779   -0.8121 H   0  0  0  0  0  0  0  0  0  0  0  0
    2.7986    3.8975   -0.0208 H   0  0  0  0  0  0  0  0  0  0  0  0
    1.0507    1.3846   -0.1684 H   0  0  0  0  0  0  0  0  0  0  0  0
    0.2813    4.2432    0.6938 H   0  0  0  0  0  0  0  0  0  0  0  0
   -1.9376    3.4510    0.6826 H   0  0  0  0  0  0  0  0  0  0  0  0
   -2.4131    0.4623   -1.9845 H   0  0  0  0  0  0  0  0  0  0  0  0
   -1.0513    1.5656   -2.2219 H   0  0  0  0  0  0  0  0  0  0  0  0
  1  2  1  0
  2  3  1  0
  3  4  2  3
  4  5  1  0
  5  6  1  0
  4  7  1  0
  7  8  1  0
  8  9  1  0
  9 10  2  3
 10 11  1  0
 11 12  2  3
 11 13  1  0
 13 14  1  0
 14 15  2  3
 15 16  1  0
 16 17  1  0
 17 18  2  3
 18 19  1  0
 19 20  2  3
 20 21  1  0
 21 22  1  0
 22 23  1  0
 21 24  1  0
 12  3  1  0
 21  7  1  0
 24  7  1  0
  1 25  1  0
  1 26  1  0
  1 27  1  0
  6 28  1  0
  6 29  1  0
  6 30  1  0
  9 31  1  0
 10 32  1  0
 12 33  1  0
 13 34  1  0
 14 35  1  0
 16 36  1  0
 17 37  1  0
 18 38  1  0
 19 39  1  0
 20 40  1  0
 22 41  1  0
 22 42  1  0
M  END
>  <candidate_id>  (143) 
CAND_e1574bf927

>  <source_generator>  (143) 
selfies

>  <parent_mol_id>  (143) 
JAK2_8c93d98423

>  <canonical_smiles>  (143) 
COC1=C(OC)C23OC=CC(=C1)NC=NNC=CC=CC2(CCl)O3

>  <inchikey>  (143) 
ZXGCZSPYAORBKO-UHFFFAOYSA-N

>  <valid_rdkit>  (143) 
True

>  <unique_flag>  (143) 
True

>  <novel_flag>  (143) 
True

>  <mw>  (143) 
351.79

>  <logp>  (143) 
1.8287

>  <tpsa>  (143) 
76.64

>  <hbd>  (143) 
2

>  <hba>  (143) 
7

>  <rotatable_bonds>  (143) 
3

>  <qed>  (143) 
0.5965

>  <sa_score>  (143) 
4.085

>  <murcko_scaffold>  (143) 
C1=CNN=CNC2=CC=CC3(OC=C2)OC3C=C1

>  <max_ring_size>  (143) 
14

>  <has_macrocycle_12_20>  (143) 
True

>  <has_constrained_ring_8_11>  (143) 
False

>  <passes_basic_filters>  (143) 
True

>  <generation_notes>  (143) 
selfies_token_mutation

>  <best_score>  (143) 
nan

>  <qed_admet>  (143) 
0.5965

>  <sa_score_admet>  (143) 
4.085

>  <mw_admet>  (143) 
351.79

>  <logp_admet>  (143) 
1.8287

>  <tpsa_admet>  (143) 
76.64

>  <hbd_admet>  (143) 
2

>  <hba_admet>  (143) 
7

>  <rotatable_bonds_admet>  (143) 
3

>  <lipinski_violations>  (143) 
0

>  <veber_pass>  (143) 
True

>  <admet_score>  (143) 
0.818425

>  <synthesis_score>  (143) 
0.657222

>  <safety_proxy_score>  (143) 
1.0

>  <main_risk>  (143) 
no_major_descriptor_risk

>  <pose_score>  (143) 
0.5

>  <pose_decision>  (143) 
nan

>  <contacts_within_4A>  (143) 
nan

>  <hard_clashes_lt_1_8A>  (143) 
nan

>  <smiles>  (143) 
COC1=C(OC)C23OC=CC(=C1)NC=NNC=CC=CC2(CCl)O3

>  <docking_score>  (143) 
nan

>  <diversity_cluster>  (143) 
scaffold_92a88550

>  <docking_score_scaled>  (143) 
0.0

>  <novelty_score>  (143) 
1.0

>  <final_weighted_score>  (143) 
0.487268

>  <rank>  (143) 
1852

>  <decision>  (143) 
await_docking

>  <diverse_rank>  (143) 
1168

>  <selection_tier>  (143) 
await_docking

$$$$
CAND_4bf5715aca
     RDKit          3D

 51 54  0  0  0  0  0  0  0  0999 V2000
   -3.5277    4.1778   -0.2188 C   0  0  0  0  0  0  0  0  0  0  0  0
   -2.2421    3.4225   -0.0561 C   0  0  0  0  0  0  0  0  0  0  0  0
   -1.1741    4.1441    0.3669 N   0  0  0  0  0  0  0  0  0  0  0  0
   -0.0091    3.4542    0.5212 C   0  0  0  0  0  0  0  0  0  0  0  0
    1.1056    4.2496    0.9499 C   0  0  0  0  0  0  0  0  0  0  0  0
    2.0179    4.8772    1.3052 N   0  0  0  0  0  0  0  0  0  0  0  0
    0.1167    2.0784    0.2824 C   0  0  0  0  0  0  0  0  0  0  0  0
   -0.9744    1.3908   -0.1279 N   0  0  0  0  0  0  0  0  0  0  0  0
   -2.1543    2.0479   -0.3202 C   0  0  0  0  0  0  0  0  0  0  0  0
   -3.2833    1.3304   -0.7674 N   0  0  0  0  0  0  0  0  0  0  0  0
   -3.4810   -0.0009   -0.7199 C   0  0  0  0  0  0  0  0  0  0  0  0
   -2.9539   -0.8551    0.2678 C   0  0  0  0  0  0  0  0  0  0  0  0
   -3.1745   -2.1321   -0.1966 C   0  0  0  0  0  0  0  0  0  0  0  0
   -3.9908   -1.9721   -1.2827 N   0  0  0  0  0  0  0  0  0  0  0  0
   -4.2022   -0.6839   -1.6108 N   0  0  0  0  0  0  0  0  0  0  0  0
   -2.6361   -3.4482    0.2501 C   0  0  0  0  0  0  0  0  0  0  0  0
   -1.2047   -3.3275    0.7947 C   0  0  0  0  0  0  0  0  0  0  0  0
   -0.1972   -2.8395   -0.2548 C   0  0  0  0  0  0  0  0  0  0  0  0
    1.0055   -2.3687    0.3616 O   0  0  0  0  0  0  0  0  0  0  0  0
    0.9098   -1.0147    0.8503 C   0  0  0  0  0  0  0  0  0  0  0  0
    1.6500    0.0334   -0.0349 C   0  0  0  0  0  0  0  0  0  0  0  0
    1.3793   -0.1180   -1.5423 C   0  0  0  0  0  0  0  0  0  0  0  0
    3.1804   -0.1271    0.2127 C   0  0  0  0  0  0  0  0  0  0  0  0
    3.8757   -1.2821   -0.1624 C   0  0  0  0  0  0  0  0  0  0  0  0
    5.2452   -1.3682    0.0884 C   0  0  0  0  0  0  0  0  0  0  0  0
    5.8852   -0.3067    0.7052 C   0  0  0  0  0  0  0  0  0  0  0  0
    7.1985   -0.3626    0.9570 F   0  0  0  0  0  0  0  0  0  0  0  0
    5.1450    0.8048    1.0572 C   0  0  0  0  0  0  0  0  0  0  0  0
    3.8135    0.9199    0.8316 N   0  0  0  0  0  0  0  0  0  0  0  0
    1.3149    1.4134    0.3930 N   0  0  0  0  0  0  0  0  0  0  0  0
   -3.4070    5.2210    0.0917 H   0  0  0  0  0  0  0  0  0  0  0  0
   -4.3140    3.7341    0.3998 H   0  0  0  0  0  0  0  0  0  0  0  0
   -3.8421    4.1740   -1.2670 H   0  0  0  0  0  0  0  0  0  0  0  0
   -3.8124    1.8176   -1.4782 H   0  0  0  0  0  0  0  0  0  0  0  0
   -2.3674   -0.5694    1.1281 H   0  0  0  0  0  0  0  0  0  0  0  0
   -4.4001   -2.6894   -1.8724 H   0  0  0  0  0  0  0  0  0  0  0  0
   -3.2872   -3.8509    1.0348 H   0  0  0  0  0  0  0  0  0  0  0  0
   -2.6490   -4.1640   -0.5806 H   0  0  0  0  0  0  0  0  0  0  0  0
   -0.8756   -4.3077    1.1625 H   0  0  0  0  0  0  0  0  0  0  0  0
   -1.1916   -2.6752    1.6761 H   0  0  0  0  0  0  0  0  0  0  0  0
    0.0794   -3.6830   -0.8970 H   0  0  0  0  0  0  0  0  0  0  0  0
   -0.5988   -2.0646   -0.9133 H   0  0  0  0  0  0  0  0  0  0  0  0
    1.3460   -1.0176    1.8575 H   0  0  0  0  0  0  0  0  0  0  0  0
   -0.1367   -0.7407    0.9890 H   0  0  0  0  0  0  0  0  0  0  0  0
    1.7013   -1.0904   -1.9296 H   0  0  0  0  0  0  0  0  0  0  0  0
    0.3166   -0.0205   -1.7821 H   0  0  0  0  0  0  0  0  0  0  0  0
    1.9116    0.6509   -2.1160 H   0  0  0  0  0  0  0  0  0  0  0  0
    3.3667   -2.1163   -0.6360 H   0  0  0  0  0  0  0  0  0  0  0  0
    5.8078   -2.2530   -0.1901 H   0  0  0  0  0  0  0  0  0  0  0  0
    5.6168    1.6529    1.5426 H   0  0  0  0  0  0  0  0  0  0  0  0
    2.0976    1.8555    0.8798 H   0  0  0  0  0  0  0  0  0  0  0  0
  1  2  1  0
  2  3  2  0
  3  4  1  0
  4  5  1  0
  5  6  3  0
  4  7  2  0
  7  8  1  0
  8  9  2  0
  9 10  1  0
 10 11  1  0
 11 12  1  0
 12 13  2  0
 13 14  1  0
 14 15  1  0
 13 16  1  0
 16 17  1  0
 17 18  1  0
 18 19  1  0
 19 20  1  0
 20 21  1  0
 21 22  1  0
 21 23  1  0
 23 24  2  0
 24 25  1  0
 25 26  2  0
 26 27  1  0
 26 28  1  0
 28 29  2  0
 21 30  1  0
  9  2  1  0
 15 11  2  0
 29 23  1  0
 30  7  1  0
  1 31  1  0
  1 32  1  0
  1 33  1  0
 10 34  1  0
 12 35  1  0
 14 36  1  0
 16 37  1  0
 16 38  1  0
 17 39  1  0
 17 40  1  0
 18 41  1  0
 18 42  1  0
 20 43  1  0
 20 44  1  0
 22 45  1  0
 22 46  1  0
 22 47  1  0
 24 48  1  0
 25 49  1  0
 28 50  1  0
 30 51  1  0
M  END
>  <candidate_id>  (144) 
CAND_4bf5715aca

>  <source_generator>  (144) 
macrocycle_linker

>  <parent_mol_id>  (144) 
JAK2_7c9f52f196

>  <canonical_smiles>  (144) 
Cc1nc(C#N)c2nc1Nc1cc([nH]n1)CCCOCC(C)(c1ccc(F)cn1)N2

>  <inchikey>  (144) 
VQNMEJVSQZSANS-UHFFFAOYSA-N

>  <valid_rdkit>  (144) 
True

>  <unique_flag>  (144) 
True

>  <novel_flag>  (144) 
True

>  <mw>  (144) 
408.441

>  <logp>  (144) 
2.9476

>  <tpsa>  (144) 
124.43

>  <hbd>  (144) 
3

>  <hba>  (144) 
8

>  <rotatable_bonds>  (144) 
1

>  <qed>  (144) 
0.5613

>  <sa_score>  (144) 
3.9

>  <murcko_scaffold>  (144) 
c1ccc(C2COCCCc3cc(n[nH]3)Nc3cncc(n3)N2)nc1

>  <max_ring_size>  (144) 
14

>  <has_macrocycle_12_20>  (144) 
True

>  <has_constrained_ring_8_11>  (144) 
False

>  <passes_basic_filters>  (144) 
True

>  <generation_notes>  (144) 
macrocycle_bridge_oxa_path9_ring13

>  <best_score>  (144) 
nan

>  <qed_admet>  (144) 
0.5613

>  <sa_score_admet>  (144) 
3.9

>  <mw_admet>  (144) 
408.441

>  <logp_admet>  (144) 
2.9476

>  <tpsa_admet>  (144) 
124.43

>  <hbd_admet>  (144) 
3

>  <hba_admet>  (144) 
8

>  <rotatable_bonds_admet>  (144) 
1

>  <lipinski_violations>  (144) 
0

>  <veber_pass>  (144) 
True

>  <admet_score>  (144) 
0.802585

>  <synthesis_score>  (144) 
0.677778

>  <safety_proxy_score>  (144) 
1.0

>  <main_risk>  (144) 
no_major_descriptor_risk

>  <pose_score>  (144) 
0.5

>  <pose_decision>  (144) 
nan

>  <contacts_within_4A>  (144) 
nan

>  <hard_clashes_lt_1_8A>  (144) 
nan

>  <smiles>  (144) 
Cc1nc(C#N)c2nc1Nc1cc([nH]n1)CCCOCC(C)(c1ccc(F)cn1)N2

>  <docking_score>  (144) 
nan

>  <diversity_cluster>  (144) 
scaffold_bc689b42

>  <docking_score_scaled>  (144) 
0.0

>  <novelty_score>  (144) 
1.0

>  <final_weighted_score>  (144) 
0.487184

>  <rank>  (144) 
1856

>  <decision>  (144) 
await_docking

>  <diverse_rank>  (144) 
1171

>  <selection_tier>  (144) 
await_docking

$$$$
CAND_842555d85a
     RDKit          3D

 60 63  0  0  0  0  0  0  0  0999 V2000
    5.9917   -0.1916    1.3599 C   0  0  0  0  0  0  0  0  0  0  0  0
    5.6207    0.9677    0.4107 C   0  0  0  0  0  0  0  0  0  0  0  0
    6.3308    0.7042   -0.9368 C   0  0  0  0  0  0  0  0  0  0  0  0
    6.1736    2.2183    1.0036 C   0  0  0  0  0  0  0  0  0  0  0  0
    6.6255    3.1883    1.4494 N   0  0  0  0  0  0  0  0  0  0  0  0
    4.1079    1.1054    0.1517 C   0  0  0  0  0  0  0  0  0  0  0  0
    3.6281    2.1679   -0.6312 C   0  0  0  0  0  0  0  0  0  0  0  0
    2.2695    2.2900   -0.9320 C   0  0  0  0  0  0  0  0  0  0  0  0
    1.3285    1.3665   -0.4571 C   0  0  0  0  0  0  0  0  0  0  0  0
    1.7784    0.3086    0.3665 C   0  0  0  0  0  0  0  0  0  0  0  0
    3.1607    0.1939    0.6463 C   0  0  0  0  0  0  0  0  0  0  0  0
    0.8618   -0.7490    0.9600 C   0  0  0  0  0  0  0  0  0  0  0  0
    0.5562   -1.8930   -0.0004 C   0  0  0  0  0  0  0  0  0  0  0  0
   -0.6078   -2.7551    0.4877 C   0  0  0  0  0  0  0  0  0  0  0  0
   -1.8216   -2.0039    0.3949 O   0  0  0  0  0  0  0  0  0  0  0  0
   -2.9901   -2.8030    0.5976 C   0  0  0  0  0  0  0  0  0  0  0  0
   -3.3406   -2.9571    2.0771 C   0  0  0  0  0  0  0  0  0  0  0  0
   -3.4008   -1.6616    2.9007 C   0  0  0  0  0  0  0  0  0  0  0  0
   -4.3644   -0.5983    2.3691 C   0  0  0  0  0  0  0  0  0  0  0  0
   -3.8274    0.0749    1.2068 N   0  0  0  0  0  0  0  0  0  0  0  0
   -4.5675    0.9361    0.4313 C   0  0  0  0  0  0  0  0  0  0  0  0
   -5.7193    1.2668    0.6799 O   0  0  0  0  0  0  0  0  0  0  0  0
   -3.9259    1.3457   -0.8304 C   0  0  0  0  0  0  0  0  0  0  0  0
   -4.6914    1.4289   -1.9740 C   0  0  0  0  0  0  0  0  0  0  0  0
   -4.1895    1.6177   -3.2170 N   0  0  0  0  0  0  0  0  0  0  0  0
   -2.8531    1.6927   -3.3931 C   0  0  0  0  0  0  0  0  0  0  0  0
   -2.4195    1.8194   -4.6949 N   0  0  0  0  0  0  0  0  0  0  0  0
   -1.9884    1.6420   -2.2733 C   0  0  0  0  0  0  0  0  0  0  0  0
   -0.5468    1.6025   -2.1949 C   0  0  0  0  0  0  0  0  0  0  0  0
   -0.0635    1.5229   -0.9035 C   0  0  0  0  0  0  0  0  0  0  0  0
   -1.3308    1.7268    0.2134 S   0  0  0  0  0  0  0  0  0  0  0  0
   -2.5480    1.5403   -0.9964 C   0  0  0  0  0  0  0  0  0  0  0  0
    7.0728   -0.2323    1.5335 H   0  0  0  0  0  0  0  0  0  0  0  0
    5.5151   -0.0810    2.3406 H   0  0  0  0  0  0  0  0  0  0  0  0
    5.6936   -1.1604    0.9441 H   0  0  0  0  0  0  0  0  0  0  0  0
    6.2128    1.5368   -1.6381 H   0  0  0  0  0  0  0  0  0  0  0  0
    5.9373   -0.1955   -1.4233 H   0  0  0  0  0  0  0  0  0  0  0  0
    7.4081    0.5633   -0.7989 H   0  0  0  0  0  0  0  0  0  0  0  0
    4.3089    2.9200   -1.0297 H   0  0  0  0  0  0  0  0  0  0  0  0
    1.9479    3.1280   -1.5484 H   0  0  0  0  0  0  0  0  0  0  0  0
    3.4802   -0.6391    1.2639 H   0  0  0  0  0  0  0  0  0  0  0  0
   -0.0441   -0.3012    1.3354 H   0  0  0  0  0  0  0  0  0  0  0  0
    1.3257   -1.1668    1.8564 H   0  0  0  0  0  0  0  0  0  0  0  0
    0.3243   -1.5049   -1.0004 H   0  0  0  0  0  0  0  0  0  0  0  0
    1.4514   -2.5202   -0.0998 H   0  0  0  0  0  0  0  0  0  0  0  0
   -0.4476   -3.0778    1.5248 H   0  0  0  0  0  0  0  0  0  0  0  0
   -0.6756   -3.6438   -0.1531 H   0  0  0  0  0  0  0  0  0  0  0  0
   -3.8159   -2.3103    0.0725 H   0  0  0  0  0  0  0  0  0  0  0  0
   -2.8742   -3.7857    0.1268 H   0  0  0  0  0  0  0  0  0  0  0  0
   -4.3024   -3.4777    2.1534 H   0  0  0  0  0  0  0  0  0  0  0  0
   -2.5945   -3.6071    2.5493 H   0  0  0  0  0  0  0  0  0  0  0  0
   -2.3940   -1.2419    2.9982 H   0  0  0  0  0  0  0  0  0  0  0  0
   -3.7251   -1.9348    3.9109 H   0  0  0  0  0  0  0  0  0  0  0  0
   -5.3328   -1.0405    2.1083 H   0  0  0  0  0  0  0  0  0  0  0  0
   -4.5391    0.1676    3.1346 H   0  0  0  0  0  0  0  0  0  0  0  0
   -2.8940   -0.1930    0.8962 H   0  0  0  0  0  0  0  0  0  0  0  0
   -5.7725    1.3105   -1.9314 H   0  0  0  0  0  0  0  0  0  0  0  0
   -3.1501    1.8887   -5.3888 H   0  0  0  0  0  0  0  0  0  0  0  0
   -1.4511    1.9109   -4.9429 H   0  0  0  0  0  0  0  0  0  0  0  0
    0.0978    1.5735   -3.0655 H   0  0  0  0  0  0  0  0  0  0  0  0
  1  2  1  0
  2  3  1  0
  2  4  1  0
  4  5  3  0
  2  6  1  0
  6  7  2  0
  7  8  1  0
  8  9  2  0
  9 10  1  0
 10 11  2  0
 10 12  1  0
 12 13  1  0
 13 14  1  0
 14 15  1  0
 15 16  1  0
 16 17  1  0
 17 18  1  0
 18 19  1  0
 19 20  1  0
 20 21  1  0
 21 22  2  0
 21 23  1  0
 23 24  1  0
 24 25  2  0
 25 26  1  0
 26 27  1  0
 26 28  2  0
 28 29  1  0
 29 30  2  0
 30 31  1  0
 31 32  1  0
 11  6  1  0
 32 23  2  0
 30  9  1  0
 32 28  1  0
  1 33  1  0
  1 34  1  0
  1 35  1  0
  3 36  1  0
  3 37  1  0
  3 38  1  0
  7 39  1  0
  8 40  1  0
 11 41  1  0
 12 42  1  0
 12 43  1  0
 13 44  1  0
 13 45  1  0
 14 46  1  0
 14 47  1  0
 16 48  1  0
 16 49  1  0
 17 50  1  0
 17 51  1  0
 18 52  1  0
 18 53  1  0
 19 54  1  0
 19 55  1  0
 20 56  1  0
 24 57  1  0
 27 58  1  0
 27 59  1  0
 29 60  1  0
M  END
>  <candidate_id>  (145) 
CAND_842555d85a

>  <source_generator>  (145) 
macrocycle_linker

>  <parent_mol_id>  (145) 
JAK2_cc9087b35d

>  <canonical_smiles>  (145) 
CC(C)(C#N)c1ccc2c(c1)CCCOCCCCNC(=O)c1cnc(N)c3cc-2sc13

>  <inchikey>  (145) 
UZQYJGXTJBRRBV-UHFFFAOYSA-N

>  <valid_rdkit>  (145) 
True

>  <unique_flag>  (145) 
True

>  <novel_flag>  (145) 
True

>  <mw>  (145) 
448.592

>  <logp>  (145) 
4.8195

>  <tpsa>  (145) 
101.03

>  <hbd>  (145) 
2

>  <hba>  (145) 
6

>  <rotatable_bonds>  (145) 
1

>  <qed>  (145) 
0.5558

>  <sa_score>  (145) 
3.873

>  <murcko_scaffold>  (145) 
O=C1NCCCCOCCCc2ccccc2-c2cc3cncc1c3s2

>  <max_ring_size>  (145) 
16

>  <has_macrocycle_12_20>  (145) 
True

>  <has_constrained_ring_8_11>  (145) 
False

>  <passes_basic_filters>  (145) 
True

>  <generation_notes>  (145) 
macrocycle_bridge_oxa_path8_ring15

>  <best_score>  (145) 
nan

>  <qed_admet>  (145) 
0.5558

>  <sa_score_admet>  (145) 
3.873

>  <mw_admet>  (145) 
448.592

>  <logp_admet>  (145) 
4.8195

>  <tpsa_admet>  (145) 
101.03

>  <hbd_admet>  (145) 
2

>  <hba_admet>  (145) 
6

>  <rotatable_bonds_admet>  (145) 
1

>  <lipinski_violations>  (145) 
0

>  <veber_pass>  (145) 
True

>  <admet_score>  (145) 
0.80011

>  <synthesis_score>  (145) 
0.680778

>  <safety_proxy_score>  (145) 
1.0

>  <main_risk>  (145) 
no_major_descriptor_risk

>  <pose_score>  (145) 
0.5

>  <pose_decision>  (145) 
nan

>  <contacts_within_4A>  (145) 
nan

>  <hard_clashes_lt_1_8A>  (145) 
nan

>  <smiles>  (145) 
CC(C)(C#N)c1ccc2c(c1)CCCOCCCCNC(=O)c1cnc(N)c3cc-2sc13

>  <docking_score>  (145) 
nan

>  <diversity_cluster>  (145) 
scaffold_a26c5da4

>  <docking_score_scaled>  (145) 
0.0

>  <novelty_score>  (145) 
1.0

>  <final_weighted_score>  (145) 
0.487139

>  <rank>  (145) 
1860

>  <decision>  (145) 
await_docking

>  <diverse_rank>  (145) 
1174

>  <selection_tier>  (145) 
await_docking

$$$$
CAND_a03fbbd37a
     RDKit          3D

 52 55  0  0  0  0  0  0  0  0999 V2000
   -4.3827    0.7396    0.0350 C   0  0  0  0  0  0  0  0  0  0  0  0
   -4.3004   -0.6995   -0.4424 C   0  0  0  0  0  0  0  0  0  0  0  0
   -4.9934   -1.4484    0.4709 F   0  0  0  0  0  0  0  0  0  0  0  0
   -2.8798   -1.2954   -0.5494 C   0  0  0  0  0  0  0  0  0  0  0  0
   -3.0197   -2.7663   -0.9746 C   0  0  0  0  0  0  0  0  0  0  0  0
   -1.9700   -0.4662   -1.4894 C   0  0  1  0  0  0  0  0  0  0  0  0
   -1.4246    0.6850   -0.7662 N   0  0  0  0  0  0  0  0  0  0  0  0
   -1.2201    1.9074   -1.3602 C   0  0  0  0  0  0  0  0  0  0  0  0
   -1.6932    2.2186   -2.4457 O   0  0  0  0  0  0  0  0  0  0  0  0
   -0.3799    2.7977   -0.5799 C   0  0  0  0  0  0  0  0  0  0  0  0
   -0.2884    4.1730   -0.7458 C   0  0  0  0  0  0  0  0  0  0  0  0
    0.6130    4.6630    0.1665 N   0  0  0  0  0  0  0  0  0  0  0  0
    1.1266    3.6304    0.8986 C   0  0  0  0  0  0  0  0  0  0  0  0
    2.0501    3.7369    1.8696 N   0  0  0  0  0  0  0  0  0  0  0  0
    2.3603    2.5122    2.3679 C   0  0  0  0  0  0  0  0  0  0  0  0
    1.8167    1.2860    1.9458 C   0  0  0  0  0  0  0  0  0  0  0  0
    0.8595    1.2344    0.9755 N   0  0  0  0  0  0  0  0  0  0  0  0
    0.5346    2.4552    0.4548 C   0  0  0  0  0  0  0  0  0  0  0  0
    2.2688   -0.0094    2.5913 C   0  0  0  0  0  0  0  0  0  0  0  0
    3.7500   -0.3131    2.6713 C   0  0  0  0  0  0  0  0  0  0  0  0
    2.8642   -1.1828    1.8235 C   0  0  0  0  0  0  0  0  0  0  0  0
    3.0673   -1.1907    0.3268 C   0  0  0  0  0  0  0  0  0  0  0  0
    2.2865   -2.3373   -0.3571 C   0  0  0  0  0  0  0  0  0  0  0  0
    3.1968   -3.4643   -0.6318 C   0  0  0  0  0  0  0  0  0  0  0  0
    3.9240   -4.3448   -0.8363 N   0  0  0  0  0  0  0  0  0  0  0  0
    1.6227   -1.8780   -1.6623 C   0  0  0  0  0  0  0  0  0  0  0  0
    0.4315   -1.0885   -1.3887 N   0  0  0  0  0  0  0  0  0  0  0  0
   -0.7664   -1.2748   -2.0533 C   0  0  0  0  0  0  0  0  0  0  0  0
   -0.9009   -2.1138   -2.9408 O   0  0  0  0  0  0  0  0  0  0  0  0
   -4.0302    1.4423   -0.7233 H   0  0  0  0  0  0  0  0  0  0  0  0
   -3.8067    0.8809    0.9551 H   0  0  0  0  0  0  0  0  0  0  0  0
   -5.4218    0.9943    0.2693 H   0  0  0  0  0  0  0  0  0  0  0  0
   -4.8293   -0.7953   -1.3974 H   0  0  0  0  0  0  0  0  0  0  0  0
   -2.4440   -1.3107    0.4594 H   0  0  0  0  0  0  0  0  0  0  0  0
   -3.3932   -2.8496   -2.0007 H   0  0  0  0  0  0  0  0  0  0  0  0
   -3.7172   -3.3012   -0.3209 H   0  0  0  0  0  0  0  0  0  0  0  0
   -2.0633   -3.2940   -0.9039 H   0  0  0  0  0  0  0  0  0  0  0  0
   -2.5349   -0.1125   -2.3604 H   0  0  0  0  0  0  0  0  0  0  0  0
   -1.0433    0.5378    0.1645 H   0  0  0  0  0  0  0  0  0  0  0  0
   -0.7954    4.8353   -1.4371 H   0  0  0  0  0  0  0  0  0  0  0  0
    0.8846    5.6294    0.2836 H   0  0  0  0  0  0  0  0  0  0  0  0
    3.1054    2.5314    3.1599 H   0  0  0  0  0  0  0  0  0  0  0  0
    1.6780   -0.2888    3.4628 H   0  0  0  0  0  0  0  0  0  0  0  0
    4.4586    0.3368    2.1681 H   0  0  0  0  0  0  0  0  0  0  0  0
    4.1318   -0.7298    3.5981 H   0  0  0  0  0  0  0  0  0  0  0  0
    2.6946   -2.1811    2.2194 H   0  0  0  0  0  0  0  0  0  0  0  0
    2.7798   -0.2232   -0.0955 H   0  0  0  0  0  0  0  0  0  0  0  0
    4.1426   -1.2889    0.1260 H   0  0  0  0  0  0  0  0  0  0  0  0
    1.4945   -2.6992    0.3126 H   0  0  0  0  0  0  0  0  0  0  0  0
    1.3456   -2.7407   -2.2793 H   0  0  0  0  0  0  0  0  0  0  0  0
    2.2997   -1.2560   -2.2594 H   0  0  0  0  0  0  0  0  0  0  0  0
    0.5110   -0.2835   -0.7743 H   0  0  0  0  0  0  0  0  0  0  0  0
  1  2  1  0
  2  3  1  0
  2  4  1  0
  4  5  1  0
  4  6  1  0
  6  7  1  0
  7  8  1  0
  8  9  2  0
  8 10  1  0
 10 11  2  0
 11 12  1  0
 12 13  1  0
 13 14  2  0
 14 15  1  0
 15 16  2  0
 16 17  1  0
 17 18  2  0
 16 19  1  0
 19 20  1  0
 20 21  1  0
 21 22  1  0
 22 23  1  0
 23 24  1  0
 24 25  3  0
 23 26  1  0
 26 27  1  0
 27 28  1  0
 28 29  2  0
 28  6  1  0
 18 10  1  0
 21 19  1  0
 18 13  1  0
  1 30  1  0
  1 31  1  0
  1 32  1  0
  2 33  1  0
  4 34  1  0
  5 35  1  0
  5 36  1  0
  5 37  1  0
  6 38  1  6
  7 39  1  0
 11 40  1  0
 12 41  1  0
 15 42  1  0
 19 43  1  0
 20 44  1  0
 20 45  1  0
 21 46  1  0
 22 47  1  0
 22 48  1  0
 23 49  1  0
 26 50  1  0
 26 51  1  0
 27 52  1  0
M  END
>  <candidate_id>  (146) 
CAND_a03fbbd37a

>  <source_generator>  (146) 
selfies

>  <parent_mol_id>  (146) 
JAK2_1a53985c87

>  <canonical_smiles>  (146) 
CC(F)C(C)[C@H]1NC(=O)c2c[nH]c3ncc(nc23)C2CC2CC(C#N)CNC1=O

>  <inchikey>  (146) 
IBLXXGXWGCLWGZ-LPERZMKRSA-N

>  <valid_rdkit>  (146) 
True

>  <unique_flag>  (146) 
True

>  <novel_flag>  (146) 
True

>  <mw>  (146) 
398.442

>  <logp>  (146) 
1.8136

>  <tpsa>  (146) 
123.56

>  <hbd>  (146) 
3

>  <hba>  (146) 
5

>  <rotatable_bonds>  (146) 
2

>  <qed>  (146) 
0.7118

>  <sa_score>  (146) 
4.719

>  <murcko_scaffold>  (146) 
O=C1CNC(=O)c2c[nH]c3ncc(nc23)C2CC2CCCN1

>  <max_ring_size>  (146) 
14

>  <has_macrocycle_12_20>  (146) 
True

>  <has_constrained_ring_8_11>  (146) 
False

>  <passes_basic_filters>  (146) 
True

>  <generation_notes>  (146) 
selfies_token_mutation

>  <best_score>  (146) 
nan

>  <qed_admet>  (146) 
0.7118

>  <sa_score_admet>  (146) 
4.719

>  <mw_admet>  (146) 
398.442

>  <logp_admet>  (146) 
1.8136

>  <tpsa_admet>  (146) 
123.56

>  <hbd_admet>  (146) 
3

>  <hba_admet>  (146) 
5

>  <rotatable_bonds_admet>  (146) 
2

>  <lipinski_violations>  (146) 
0

>  <veber_pass>  (146) 
True

>  <admet_score>  (146) 
0.87031

>  <synthesis_score>  (146) 
0.586778

>  <safety_proxy_score>  (146) 
1.0

>  <main_risk>  (146) 
no_major_descriptor_risk

>  <pose_score>  (146) 
0.5

>  <pose_decision>  (146) 
nan

>  <contacts_within_4A>  (146) 
nan

>  <hard_clashes_lt_1_8A>  (146) 
nan

>  <smiles>  (146) 
CC(F)C(C)[C@H]1NC(=O)c2c[nH]c3ncc(nc23)C2CC2CC(C#N)CNC1=O

>  <docking_score>  (146) 
nan

>  <diversity_cluster>  (146) 
scaffold_9b561eca

>  <docking_score_scaled>  (146) 
0.0

>  <novelty_score>  (146) 
1.0

>  <final_weighted_score>  (146) 
0.487079

>  <rank>  (146) 
1865

>  <decision>  (146) 
await_docking

>  <diverse_rank>  (146) 
1178

>  <selection_tier>  (146) 
await_docking

$$$$
CAND_030a0135bb
     RDKit          3D

 47 50  0  0  0  0  0  0  0  0999 V2000
   -4.9245    0.1420   -1.4058 C   0  0  0  0  0  0  0  0  0  0  0  0
   -3.7093    0.7411   -0.7611 C   0  0  0  0  0  0  0  0  0  0  0  0
   -3.5551    2.0832   -0.9170 N   0  0  0  0  0  0  0  0  0  0  0  0
   -2.4381    2.6259   -0.3603 C   0  0  0  0  0  0  0  0  0  0  0  0
   -2.3368    4.0509   -0.4793 C   0  0  0  0  0  0  0  0  0  0  0  0
   -2.2266    5.2043   -0.5812 N   0  0  0  0  0  0  0  0  0  0  0  0
   -1.4897    1.8647    0.3240 C   0  0  0  0  0  0  0  0  0  0  0  0
   -1.6855    0.5370    0.4867 N   0  0  0  0  0  0  0  0  0  0  0  0
   -2.7881   -0.0444   -0.0475 C   0  0  0  0  0  0  0  0  0  0  0  0
   -2.9667   -1.4327    0.0700 N   0  0  0  0  0  0  0  0  0  0  0  0
   -2.0722   -2.4089    0.3213 C   0  0  0  0  0  0  0  0  0  0  0  0
   -0.6649   -2.3001    0.2662 C   0  0  0  0  0  0  0  0  0  0  0  0
   -0.1766   -3.5511    0.5803 C   0  0  0  0  0  0  0  0  0  0  0  0
   -1.2888   -4.3205    0.7761 N   0  0  0  0  0  0  0  0  0  0  0  0
   -2.4449   -3.6562    0.6202 N   0  0  0  0  0  0  0  0  0  0  0  0
    1.2128   -4.0950    0.6869 C   0  0  0  0  0  0  0  0  0  0  0  0
    2.1989   -3.1052    1.3172 C   0  0  0  0  0  0  0  0  0  0  0  0
    2.5164   -2.0864    0.3688 O   0  0  0  0  0  0  0  0  0  0  0  0
    3.2978   -1.0339    0.9328 C   0  0  0  0  0  0  0  0  0  0  0  0
    3.0732    0.2066    0.1114 C   0  0  0  0  0  0  0  0  0  0  0  0
    2.0988    1.0617    0.5199 N   0  0  0  0  0  0  0  0  0  0  0  0
    1.8262    2.1220   -0.2806 C   0  0  0  0  0  0  0  0  0  0  0  0
    2.4891    2.4035   -1.4223 N   0  0  0  0  0  0  0  0  0  0  0  0
    3.4605    1.5335   -1.7774 C   0  0  0  0  0  0  0  0  0  0  0  0
    3.7873    0.4152   -1.0482 C   0  0  0  0  0  0  0  0  0  0  0  0
    4.7542   -0.4171   -1.4530 F   0  0  0  0  0  0  0  0  0  0  0  0
    0.6865    3.0571    0.1440 C   0  0  2  0  0  0  0  0  0  0  0  0
    1.2465    4.1725    1.0230 C   0  0  0  0  0  0  0  0  0  0  0  0
   -0.3298    2.3214    0.9143 N   0  0  0  0  0  0  0  0  0  0  0  0
   -4.6363   -0.6413   -2.1137 H   0  0  0  0  0  0  0  0  0  0  0  0
   -5.5906   -0.2787   -0.6463 H   0  0  0  0  0  0  0  0  0  0  0  0
   -5.4851    0.9025   -1.9595 H   0  0  0  0  0  0  0  0  0  0  0  0
   -3.9316   -1.7193    0.1562 H   0  0  0  0  0  0  0  0  0  0  0  0
   -0.0780   -1.4239    0.0274 H   0  0  0  0  0  0  0  0  0  0  0  0
   -1.3340   -5.3063    1.0110 H   0  0  0  0  0  0  0  0  0  0  0  0
    1.1947   -5.0050    1.2988 H   0  0  0  0  0  0  0  0  0  0  0  0
    1.5538   -4.3733   -0.3175 H   0  0  0  0  0  0  0  0  0  0  0  0
    3.1256   -3.6275    1.5800 H   0  0  0  0  0  0  0  0  0  0  0  0
    1.7704   -2.6646    2.2256 H   0  0  0  0  0  0  0  0  0  0  0  0
    4.3541   -1.3239    0.9368 H   0  0  0  0  0  0  0  0  0  0  0  0
    2.9945   -0.8300    1.9669 H   0  0  0  0  0  0  0  0  0  0  0  0
    3.9832    1.7627   -2.7002 H   0  0  0  0  0  0  0  0  0  0  0  0
    0.2647    3.4980   -0.7655 H   0  0  0  0  0  0  0  0  0  0  0  0
    1.7082    3.7742    1.9343 H   0  0  0  0  0  0  0  0  0  0  0  0
    2.0086    4.7510    0.4892 H   0  0  0  0  0  0  0  0  0  0  0  0
    0.4519    4.8613    1.3300 H   0  0  0  0  0  0  0  0  0  0  0  0
    0.0951    1.5530    1.4401 H   0  0  0  0  0  0  0  0  0  0  0  0
  1  2  1  0
  2  3  2  0
  3  4  1  0
  4  5  1  0
  5  6  3  0
  4  7  2  0
  7  8  1  0
  8  9  2  0
  9 10  1  0
 10 11  1  0
 11 12  1  0
 12 13  2  0
 13 14  1  0
 14 15  1  0
 13 16  1  0
 16 17  1  0
 17 18  1  0
 18 19  1  0
 19 20  1  0
 20 21  2  0
 21 22  1  0
 22 23  2  0
 23 24  1  0
 24 25  2  0
 25 26  1  0
 22 27  1  0
 27 28  1  0
 27 29  1  0
  9  2  1  0
 15 11  2  0
 25 20  1  0
 29  7  1  0
  1 30  1  0
  1 31  1  0
  1 32  1  0
 10 33  1  0
 12 34  1  0
 14 35  1  0
 16 36  1  0
 16 37  1  0
 17 38  1  0
 17 39  1  0
 19 40  1  0
 19 41  1  0
 24 42  1  0
 27 43  1  6
 28 44  1  0
 28 45  1  0
 28 46  1  0
 29 47  1  0
M  END
>  <candidate_id>  (147) 
CAND_030a0135bb

>  <source_generator>  (147) 
macrocycle_linker

>  <parent_mol_id>  (147) 
JAK2_c828b6ae57

>  <canonical_smiles>  (147) 
Cc1nc(C#N)c2nc1Nc1cc([nH]n1)CCOCc1nc(ncc1F)[C@H](C)N2

>  <inchikey>  (147) 
FCJHAPOZDYYXQK-VIFPVBQESA-N

>  <valid_rdkit>  (147) 
True

>  <unique_flag>  (147) 
True

>  <novel_flag>  (147) 
True

>  <mw>  (147) 
395.402

>  <logp>  (147) 
2.2983

>  <tpsa>  (147) 
137.32

>  <hbd>  (147) 
3

>  <hba>  (147) 
9

>  <rotatable_bonds>  (147) 
0

>  <qed>  (147) 
0.5232

>  <sa_score>  (147) 
3.702

>  <murcko_scaffold>  (147) 
c1cc2nc(n1)CNc1cncc(n1)Nc1cc([nH]n1)CCOC2

>  <max_ring_size>  (147) 
16

>  <has_macrocycle_12_20>  (147) 
True

>  <has_constrained_ring_8_11>  (147) 
False

>  <passes_basic_filters>  (147) 
True

>  <generation_notes>  (147) 
macrocycle_bridge_oxa_path12_ring15

>  <best_score>  (147) 
nan

>  <qed_admet>  (147) 
0.5232

>  <sa_score_admet>  (147) 
3.702

>  <mw_admet>  (147) 
395.402

>  <logp_admet>  (147) 
2.2983

>  <tpsa_admet>  (147) 
137.32

>  <hbd_admet>  (147) 
3

>  <hba_admet>  (147) 
9

>  <rotatable_bonds_admet>  (147) 
0

>  <lipinski_violations>  (147) 
0

>  <veber_pass>  (147) 
True

>  <admet_score>  (147) 
0.78544

>  <synthesis_score>  (147) 
0.699778

>  <safety_proxy_score>  (147) 
1.0

>  <main_risk>  (147) 
no_major_descriptor_risk

>  <pose_score>  (147) 
0.5

>  <pose_decision>  (147) 
nan

>  <contacts_within_4A>  (147) 
nan

>  <hard_clashes_lt_1_8A>  (147) 
nan

>  <smiles>  (147) 
Cc1nc(C#N)c2nc1Nc1cc([nH]n1)CCOCc1nc(ncc1F)[C@H](C)N2

>  <docking_score>  (147) 
nan

>  <diversity_cluster>  (147) 
scaffold_c6ee3c75

>  <docking_score_scaled>  (147) 
0.0

>  <novelty_score>  (147) 
1.0

>  <final_weighted_score>  (147) 
0.487055

>  <rank>  (147) 
1866

>  <decision>  (147) 
await_docking

>  <diverse_rank>  (147) 
1179

>  <selection_tier>  (147) 
await_docking

$$$$
CAND_f223d783e6
     RDKit          3D

 53 56  0  0  0  0  0  0  0  0999 V2000
    6.4566    0.1308   -2.1423 C   0  0  0  0  0  0  0  0  0  0  0  0
    5.2520    0.2830   -1.3002 C   0  0  0  0  0  0  0  0  0  0  0  0
    3.9876    0.7582   -1.5647 C   0  0  0  0  0  0  0  0  0  0  0  0
    3.2664    0.6564   -0.3447 C   0  0  0  0  0  0  0  0  0  0  0  0
    1.9895    1.0702   -0.2726 N   0  0  0  0  0  0  0  0  0  0  0  0
    0.9865    1.1366    0.6862 C   0  0  0  0  0  0  0  0  0  0  0  0
   -0.0412    1.9129    0.2366 N   0  0  0  0  0  0  0  0  0  0  0  0
   -1.1226    2.0834    1.0182 C   0  0  0  0  0  0  0  0  0  0  0  0
   -1.1401    1.5417    2.2946 C   0  0  0  0  0  0  0  0  0  0  0  0
   -0.1489    0.7708    2.7842 N   0  0  0  0  0  0  0  0  0  0  0  0
    0.8894    0.5077    1.9345 C   0  0  0  0  0  0  0  0  0  0  0  0
    1.7408   -0.6369    2.4034 C   0  0  0  0  0  0  0  0  0  0  0  0
    1.5997   -1.9160    1.5581 C   0  0  0  0  0  0  0  0  0  0  0  0
    0.2182   -2.5758    1.6556 C   0  0  0  0  0  0  0  0  0  0  0  0
   -0.8048   -1.7876    1.0552 O   0  0  0  0  0  0  0  0  0  0  0  0
   -1.0021   -2.0359   -0.3335 C   0  0  0  0  0  0  0  0  0  0  0  0
   -1.8066   -0.8792   -0.9529 C   0  0  0  0  0  0  0  0  0  0  0  0
   -3.1510   -0.5478   -0.3391 C   0  0  0  0  0  0  0  0  0  0  0  0
   -3.9723   -1.6117    0.0872 C   0  0  0  0  0  0  0  0  0  0  0  0
   -5.2051   -1.3659    0.6658 C   0  0  0  0  0  0  0  0  0  0  0  0
   -5.9760   -2.3796    1.0779 F   0  0  0  0  0  0  0  0  0  0  0  0
   -5.6183   -0.0641    0.8042 C   0  0  0  0  0  0  0  0  0  0  0  0
   -4.8857    0.9915    0.3880 N   0  0  0  0  0  0  0  0  0  0  0  0
   -3.6640    0.7624   -0.1988 C   0  0  0  0  0  0  0  0  0  0  0  0
   -2.9776    2.0699   -0.6173 C   0  0  2  0  0  0  0  0  0  0  0  0
   -2.2619    2.1398   -1.9647 C   0  0  0  0  0  0  0  0  0  0  0  0
   -2.2441    2.6947    0.4898 N   0  0  0  0  0  0  0  0  0  0  0  0
    4.0453    0.1509    0.6095 N   0  0  0  0  0  0  0  0  0  0  0  0
    5.2290   -0.0595    0.0203 N   0  0  0  0  0  0  0  0  0  0  0  0
    6.7782   -0.9152   -2.1707 H   0  0  0  0  0  0  0  0  0  0  0  0
    7.2804    0.7358   -1.7504 H   0  0  0  0  0  0  0  0  0  0  0  0
    6.2597    0.4521   -3.1701 H   0  0  0  0  0  0  0  0  0  0  0  0
    3.6288    1.1342   -2.5124 H   0  0  0  0  0  0  0  0  0  0  0  0
    1.6212    1.5983   -1.0576 H   0  0  0  0  0  0  0  0  0  0  0  0
   -1.9958    1.6642    2.9482 H   0  0  0  0  0  0  0  0  0  0  0  0
    1.4572   -0.8880    3.4355 H   0  0  0  0  0  0  0  0  0  0  0  0
    2.7802   -0.3221    2.4939 H   0  0  0  0  0  0  0  0  0  0  0  0
    1.8313   -1.7107    0.5091 H   0  0  0  0  0  0  0  0  0  0  0  0
    2.3443   -2.6371    1.9167 H   0  0  0  0  0  0  0  0  0  0  0  0
    0.2378   -3.5746    1.2033 H   0  0  0  0  0  0  0  0  0  0  0  0
   -0.0487   -2.7074    2.7098 H   0  0  0  0  0  0  0  0  0  0  0  0
   -0.0361   -2.1006   -0.8477 H   0  0  0  0  0  0  0  0  0  0  0  0
   -1.5120   -2.9966   -0.4577 H   0  0  0  0  0  0  0  0  0  0  0  0
   -1.9567   -1.0763   -2.0209 H   0  0  0  0  0  0  0  0  0  0  0  0
   -1.1580   -0.0155   -0.8706 H   0  0  0  0  0  0  0  0  0  0  0  0
   -3.6599   -2.6461   -0.0102 H   0  0  0  0  0  0  0  0  0  0  0  0
   -6.5744    0.1708    1.2583 H   0  0  0  0  0  0  0  0  0  0  0  0
   -3.8252    2.7547   -0.7783 H   0  0  0  0  0  0  0  0  0  0  0  0
   -2.8779    1.6945   -2.7536 H   0  0  0  0  0  0  0  0  0  0  0  0
   -1.2884    1.6506   -1.9896 H   0  0  0  0  0  0  0  0  0  0  0  0
   -2.0789    3.1867   -2.2355 H   0  0  0  0  0  0  0  0  0  0  0  0
   -2.8287    3.1865    1.1539 H   0  0  0  0  0  0  0  0  0  0  0  0
    5.9829   -0.4392    0.5834 H   0  0  0  0  0  0  0  0  0  0  0  0
  1  2  1  0
  2  3  2  0
  3  4  1  0
  4  5  1  0
  5  6  1  0
  6  7  2  0
  7  8  1  0
  8  9  2  0
  9 10  1  0
 10 11  2  0
 11 12  1  0
 12 13  1  0
 13 14  1  0
 14 15  1  0
 15 16  1  0
 16 17  1  0
 17 18  1  0
 18 19  2  0
 19 20  1  0
 20 21  1  0
 20 22  2  0
 22 23  1  0
 23 24  2  0
 24 25  1  0
 25 26  1  0
 25 27  1  0
  4 28  2  0
 28 29  1  0
 29  2  1  0
 11  6  1  0
 24 18  1  0
 27  8  1  0
  1 30  1  0
  1 31  1  0
  1 32  1  0
  3 33  1  0
  5 34  1  0
  9 35  1  0
 12 36  1  0
 12 37  1  0
 13 38  1  0
 13 39  1  0
 14 40  1  0
 14 41  1  0
 16 42  1  0
 16 43  1  0
 17 44  1  0
 17 45  1  0
 19 46  1  0
 22 47  1  0
 25 48  1  6
 26 49  1  0
 26 50  1  0
 26 51  1  0
 27 52  1  0
 29 53  1  0
M  END
>  <candidate_id>  (148) 
CAND_f223d783e6

>  <source_generator>  (148) 
macrocycle_linker

>  <parent_mol_id>  (148) 
JAK2_1bae26071f

>  <canonical_smiles>  (148) 
Cc1cc(Nc2nc3cnc2CCCOCCc2cc(F)cnc2[C@H](C)N3)n[nH]1

>  <inchikey>  (148) 
QMGOUQWEGTVHFO-ZDUSSCGKSA-N

>  <valid_rdkit>  (148) 
True

>  <unique_flag>  (148) 
True

>  <novel_flag>  (148) 
True

>  <mw>  (148) 
397.458

>  <logp>  (148) 
3.4642

>  <tpsa>  (148) 
100.64

>  <hbd>  (148) 
3

>  <hba>  (148) 
7

>  <rotatable_bonds>  (148) 
2

>  <qed>  (148) 
0.6087

>  <sa_score>  (148) 
4.164

>  <murcko_scaffold>  (148) 
c1cnc2c(c1)CCOCCCc1ncc(nc1Nc1cc[nH]n1)NC2

>  <max_ring_size>  (148) 
14

>  <has_macrocycle_12_20>  (148) 
True

>  <has_constrained_ring_8_11>  (148) 
False

>  <passes_basic_filters>  (148) 
True

>  <generation_notes>  (148) 
macrocycle_bridge_oxa_path8_ring13

>  <best_score>  (148) 
nan

>  <qed_admet>  (148) 
0.6087

>  <sa_score_admet>  (148) 
4.164

>  <mw_admet>  (148) 
397.458

>  <logp_admet>  (148) 
3.4642

>  <tpsa_admet>  (148) 
100.64

>  <hbd_admet>  (148) 
3

>  <hba_admet>  (148) 
7

>  <rotatable_bonds_admet>  (148) 
2

>  <lipinski_violations>  (148) 
0

>  <veber_pass>  (148) 
True

>  <admet_score>  (148) 
0.823915

>  <synthesis_score>  (148) 
0.648444

>  <safety_proxy_score>  (148) 
1.0

>  <main_risk>  (148) 
no_major_descriptor_risk

>  <pose_score>  (148) 
0.5

>  <pose_decision>  (148) 
nan

>  <contacts_within_4A>  (148) 
nan

>  <hard_clashes_lt_1_8A>  (148) 
nan

>  <smiles>  (148) 
Cc1cc(Nc2nc3cnc2CCCOCCc2cc(F)cnc2[C@H](C)N3)n[nH]1

>  <docking_score>  (148) 
nan

>  <diversity_cluster>  (148) 
scaffold_352b01ae

>  <docking_score_scaled>  (148) 
0.0

>  <novelty_score>  (148) 
1.0

>  <final_weighted_score>  (148) 
0.48705

>  <rank>  (148) 
1867

>  <decision>  (148) 
await_docking

>  <diverse_rank>  (148) 
1180

>  <selection_tier>  (148) 
await_docking

$$$$
